<?xml version="1.0" encoding="UTF-8"?>

<!-- generated on Wed Dec 16 12:13:18 2020 by Eclipse SUMO netconvert Version 1.8.0
<configuration xmlns:xsi="http://www.w3.org/2001/XMLSchema-instance" xsi:noNamespaceSchemaLocation="http://sumo.dlr.de/xsd/netconvertConfiguration.xsd">

    <input>
        <node-files value="/Users/Matteo/PycharmProjects/TrafficEmu/grid_simulation/grid_plain_xml/nodes.nod.xml"/>
        <edge-files value="/Users/Matteo/PycharmProjects/TrafficEmu/grid_simulation/grid_plain_xml/edges.edg.xml"/>
        <type-files value="/Users/Matteo/PycharmProjects/TrafficEmu/grid_simulation/grid_plain_xml/edge_types.typ.xml"/>
    </input>

    <output>
        <output-file value="/Users/Matteo/PycharmProjects/TrafficEmu/grid_simulation/grid.net.xml"/>
    </output>

    <report>
        <aggregate-warnings value="5"/>
    </report>

</configuration>
-->

<net version="1.6" junctionCornerDetail="5" limitTurnSpeed="5.50" xmlns:xsi="http://www.w3.org/2001/XMLSchema-instance" xsi:noNamespaceSchemaLocation="http://sumo.dlr.de/xsd/net_file.xsd">

    <location netOffset="0.00,0.00" convBoundary="0.00,0.00,150.00,150.00" origBoundary="0.00,0.00,150.00,150.00" projParameter="!"/>

    <type id="normal_road" priority="0" numLanes="1" speed="13.90"/>
    <type id="normal_road_2lanes" priority="0" numLanes="2" speed="13.90"/>
    <type id="normal_road_3lanes" priority="0" numLanes="3" speed="13.90"/>
    <type id="normal_road_4lanes" priority="0" numLanes="4" speed="13.90"/>

    <edge id=":n1_0" function="internal">
        <lane id=":n1_0_0" index="0" speed="11.12" length="28.38" shape="-8.00,9.60 -6.90,1.90 -3.60,-3.60 1.90,-6.90 9.60,-8.00"/>
    </edge>
    <edge id=":n1_1" function="internal">
        <lane id=":n1_1_0" index="0" speed="10.10" length="23.22" shape="-4.80,9.60 -3.90,3.30 -1.20,-1.20 3.30,-3.90 9.60,-4.80"/>
    </edge>
    <edge id=":n1_2" function="internal">
        <lane id=":n1_2_0" index="0" speed="8.96" length="18.06" shape="-1.60,9.60 -0.90,4.70 1.20,1.20 4.70,-0.90 9.60,-1.60"/>
    </edge>
    <edge id=":n1_3" function="internal">
        <lane id=":n1_3_0" index="0" speed="3.90" length="2.58" shape="9.60,8.00 8.90,8.10 8.40,8.40 8.10,8.90 8.00,9.60"/>
    </edge>
    <edge id=":n1_4" function="internal">
        <lane id=":n1_4_0" index="0" speed="6.08" length="7.74" shape="9.60,4.80 7.50,5.10 6.00,6.00 5.10,7.50 4.80,9.60"/>
    </edge>
    <edge id=":n1_5" function="internal">
        <lane id=":n1_5_0" index="0" speed="7.66" length="12.90" shape="9.60,1.60 6.10,2.10 3.60,3.60 2.10,6.10 1.60,9.60"/>
    </edge>
    <edge id=":n10_0" function="internal">
        <lane id=":n10_0_0" index="0" speed="3.90" length="2.58" shape="142.00,9.60 141.90,8.90 141.60,8.40 141.10,8.10 140.40,8.00"/>
    </edge>
    <edge id=":n10_1" function="internal">
        <lane id=":n10_1_0" index="0" speed="6.08" length="7.74" shape="145.20,9.60 144.90,7.50 144.00,6.00 142.50,5.10 140.40,4.80"/>
    </edge>
    <edge id=":n10_2" function="internal">
        <lane id=":n10_2_0" index="0" speed="7.66" length="12.90" shape="148.40,9.60 147.90,6.10 146.40,3.60 143.90,2.10 140.40,1.60"/>
    </edge>
    <edge id=":n10_3" function="internal">
        <lane id=":n10_3_0" index="0" speed="11.12" length="28.38" shape="140.40,-8.00 148.10,-6.90 153.60,-3.60 156.90,1.90 158.00,9.60"/>
    </edge>
    <edge id=":n10_4" function="internal">
        <lane id=":n10_4_0" index="0" speed="10.10" length="23.22" shape="140.40,-4.80 146.70,-3.90 151.20,-1.20 153.90,3.30 154.80,9.60"/>
    </edge>
    <edge id=":n10_5" function="internal">
        <lane id=":n10_5_0" index="0" speed="8.96" length="18.06" shape="140.40,-1.60 145.30,-0.90 148.80,1.20 150.90,4.70 151.60,9.60"/>
    </edge>
    <edge id=":n11_0" function="internal">
        <lane id=":n11_0_0" index="0" speed="6.51" length="9.03" shape="142.00,63.60 141.65,61.15 140.60,59.40 138.85,58.35 136.40,58.00"/>
    </edge>
    <edge id=":n11_1" function="internal">
        <lane id=":n11_1_0" index="0" speed="13.90" length="27.20" shape="142.00,63.60 142.00,36.40"/>
        <lane id=":n11_1_1" index="1" speed="13.90" length="27.20" shape="145.20,63.60 145.20,36.40"/>
        <lane id=":n11_1_2" index="2" speed="13.90" length="27.20" shape="148.40,63.60 148.40,36.40"/>
    </edge>
    <edge id=":n11_4" function="internal">
        <lane id=":n11_4_0" index="0" speed="3.65" length="2.34" shape="148.40,63.60 149.20,62.40 150.00,62.00"/>
    </edge>
    <edge id=":n11_16" function="internal">
        <lane id=":n11_16_0" index="0" speed="3.65" length="2.34" shape="150.00,62.00 150.80,62.40 151.60,63.60"/>
    </edge>
    <edge id=":n11_5" function="internal">
        <lane id=":n11_5_0" index="0" speed="13.90" length="27.20" shape="158.00,36.40 158.00,63.60"/>
        <lane id=":n11_5_1" index="1" speed="13.90" length="27.20" shape="154.80,36.40 154.80,63.60"/>
        <lane id=":n11_5_2" index="2" speed="13.90" length="27.20" shape="151.60,36.40 151.60,63.60"/>
    </edge>
    <edge id=":n11_8" function="internal">
        <lane id=":n11_8_0" index="0" speed="10.88" length="9.57" shape="151.60,36.40 150.65,44.45 150.00,45.76"/>
    </edge>
    <edge id=":n11_9" function="internal">
        <lane id=":n11_9_0" index="0" speed="10.36" length="7.98" shape="151.60,36.40 150.65,43.05 150.00,44.13"/>
    </edge>
    <edge id=":n11_10" function="internal">
        <lane id=":n11_10_0" index="0" speed="3.65" length="2.34" shape="151.60,36.40 150.80,37.60 150.00,38.00"/>
    </edge>
    <edge id=":n11_17" function="internal">
        <lane id=":n11_17_0" index="0" speed="10.88" length="17.57" shape="150.00,45.76 147.80,50.20 143.05,53.65 136.40,54.80"/>
    </edge>
    <edge id=":n11_18" function="internal">
        <lane id=":n11_18_0" index="0" speed="10.36" length="16.53" shape="150.00,44.13 147.80,47.80 143.05,50.65 136.40,51.60"/>
    </edge>
    <edge id=":n11_19" function="internal">
        <lane id=":n11_19_0" index="0" speed="3.65" length="2.34" shape="150.00,38.00 149.20,37.60 148.40,36.40"/>
    </edge>
    <edge id=":n11_11" function="internal">
        <lane id=":n11_11_0" index="0" speed="6.51" length="9.03" shape="136.40,42.00 138.85,41.65 140.60,40.60 141.65,38.85 142.00,36.40"/>
    </edge>
    <edge id=":n11_12" function="internal">
        <lane id=":n11_12_0" index="0" speed="8.00" length="14.19" shape="136.40,45.20 140.25,44.65 143.00,43.00 144.65,40.25 145.20,36.40"/>
    </edge>
    <edge id=":n11_13" function="internal">
        <lane id=":n11_13_0" index="0" speed="10.88" length="27.14" shape="136.40,48.40 144.45,49.35 150.20,52.20 153.65,56.95 154.80,63.60"/>
    </edge>
    <edge id=":n11_14" function="internal">
        <lane id=":n11_14_0" index="0" speed="10.36" length="24.51" shape="136.40,48.40 143.05,49.35 147.80,52.20 150.65,56.95 151.60,63.60"/>
    </edge>
    <edge id=":n11_15" function="internal">
        <lane id=":n11_15_0" index="0" speed="3.65" length="2.34" shape="136.40,48.40 137.60,49.20 138.00,50.00"/>
    </edge>
    <edge id=":n11_20" function="internal">
        <lane id=":n11_20_0" index="0" speed="3.65" length="2.34" shape="138.00,50.00 137.60,50.80 136.40,51.60"/>
    </edge>
    <edge id=":n12_0" function="internal">
        <lane id=":n12_0_0" index="0" speed="6.51" length="9.03" shape="142.00,113.60 141.65,111.15 140.60,109.40 138.85,108.35 136.40,108.00"/>
    </edge>
    <edge id=":n12_1" function="internal">
        <lane id=":n12_1_0" index="0" speed="13.90" length="27.20" shape="142.00,113.60 142.00,86.40"/>
        <lane id=":n12_1_1" index="1" speed="13.90" length="27.20" shape="145.20,113.60 145.20,86.40"/>
        <lane id=":n12_1_2" index="2" speed="13.90" length="27.20" shape="148.40,113.60 148.40,86.40"/>
    </edge>
    <edge id=":n12_4" function="internal">
        <lane id=":n12_4_0" index="0" speed="3.65" length="2.34" shape="148.40,113.60 149.20,112.40 150.00,112.00"/>
    </edge>
    <edge id=":n12_16" function="internal">
        <lane id=":n12_16_0" index="0" speed="3.65" length="2.34" shape="150.00,112.00 150.80,112.40 151.60,113.60"/>
    </edge>
    <edge id=":n12_5" function="internal">
        <lane id=":n12_5_0" index="0" speed="13.90" length="27.20" shape="158.00,86.40 158.00,113.60"/>
        <lane id=":n12_5_1" index="1" speed="13.90" length="27.20" shape="154.80,86.40 154.80,113.60"/>
        <lane id=":n12_5_2" index="2" speed="13.90" length="27.20" shape="151.60,86.40 151.60,113.60"/>
    </edge>
    <edge id=":n12_8" function="internal">
        <lane id=":n12_8_0" index="0" speed="10.88" length="9.57" shape="151.60,86.40 150.65,94.45 150.00,95.76"/>
    </edge>
    <edge id=":n12_9" function="internal">
        <lane id=":n12_9_0" index="0" speed="10.36" length="7.98" shape="151.60,86.40 150.65,93.05 150.00,94.13"/>
    </edge>
    <edge id=":n12_10" function="internal">
        <lane id=":n12_10_0" index="0" speed="3.65" length="2.34" shape="151.60,86.40 150.80,87.60 150.00,88.00"/>
    </edge>
    <edge id=":n12_17" function="internal">
        <lane id=":n12_17_0" index="0" speed="10.88" length="17.57" shape="150.00,95.76 147.80,100.20 143.05,103.65 136.40,104.80"/>
    </edge>
    <edge id=":n12_18" function="internal">
        <lane id=":n12_18_0" index="0" speed="10.36" length="16.53" shape="150.00,94.13 147.80,97.80 143.05,100.65 136.40,101.60"/>
    </edge>
    <edge id=":n12_19" function="internal">
        <lane id=":n12_19_0" index="0" speed="3.65" length="2.34" shape="150.00,88.00 149.20,87.60 148.40,86.40"/>
    </edge>
    <edge id=":n12_11" function="internal">
        <lane id=":n12_11_0" index="0" speed="6.51" length="9.03" shape="136.40,92.00 138.85,91.65 140.60,90.60 141.65,88.85 142.00,86.40"/>
    </edge>
    <edge id=":n12_12" function="internal">
        <lane id=":n12_12_0" index="0" speed="8.00" length="14.19" shape="136.40,95.20 140.25,94.65 143.00,93.00 144.65,90.25 145.20,86.40"/>
    </edge>
    <edge id=":n12_13" function="internal">
        <lane id=":n12_13_0" index="0" speed="10.88" length="27.14" shape="136.40,98.40 144.45,99.35 150.20,102.20 153.65,106.95 154.80,113.60"/>
    </edge>
    <edge id=":n12_14" function="internal">
        <lane id=":n12_14_0" index="0" speed="10.36" length="24.51" shape="136.40,98.40 143.05,99.35 147.80,102.20 150.65,106.95 151.60,113.60"/>
    </edge>
    <edge id=":n12_15" function="internal">
        <lane id=":n12_15_0" index="0" speed="3.65" length="2.34" shape="136.40,98.40 137.60,99.20 138.00,100.00"/>
    </edge>
    <edge id=":n12_20" function="internal">
        <lane id=":n12_20_0" index="0" speed="3.65" length="2.34" shape="138.00,100.00 137.60,100.80 136.40,101.60"/>
    </edge>
    <edge id=":n13_0" function="internal">
        <lane id=":n13_0_0" index="0" speed="11.12" length="28.38" shape="158.00,140.40 156.90,148.10 153.60,153.60 148.10,156.90 140.40,158.00"/>
    </edge>
    <edge id=":n13_1" function="internal">
        <lane id=":n13_1_0" index="0" speed="10.10" length="23.22" shape="154.80,140.40 153.90,146.70 151.20,151.20 146.70,153.90 140.40,154.80"/>
    </edge>
    <edge id=":n13_2" function="internal">
        <lane id=":n13_2_0" index="0" speed="8.96" length="18.06" shape="151.60,140.40 150.90,145.30 148.80,148.80 145.30,150.90 140.40,151.60"/>
    </edge>
    <edge id=":n13_3" function="internal">
        <lane id=":n13_3_0" index="0" speed="3.90" length="2.58" shape="140.40,142.00 141.10,141.90 141.60,141.60 141.90,141.10 142.00,140.40"/>
    </edge>
    <edge id=":n13_4" function="internal">
        <lane id=":n13_4_0" index="0" speed="6.08" length="7.74" shape="140.40,145.20 142.50,144.90 144.00,144.00 144.90,142.50 145.20,140.40"/>
    </edge>
    <edge id=":n13_5" function="internal">
        <lane id=":n13_5_0" index="0" speed="7.66" length="12.90" shape="140.40,148.40 143.90,147.90 146.40,146.40 147.90,143.90 148.40,140.40"/>
    </edge>
    <edge id=":n14_0" function="internal">
        <lane id=":n14_0_0" index="0" speed="13.90" length="27.20" shape="113.60,158.00 86.40,158.00"/>
        <lane id=":n14_0_1" index="1" speed="13.90" length="27.20" shape="113.60,154.80 86.40,154.80"/>
        <lane id=":n14_0_2" index="2" speed="13.90" length="27.20" shape="113.60,151.60 86.40,151.60"/>
    </edge>
    <edge id=":n14_3" function="internal">
        <lane id=":n14_3_0" index="0" speed="10.88" length="9.57" shape="113.60,151.60 105.55,150.65 104.24,150.00"/>
    </edge>
    <edge id=":n14_4" function="internal">
        <lane id=":n14_4_0" index="0" speed="10.36" length="7.98" shape="113.60,151.60 106.95,150.65 105.87,150.00"/>
    </edge>
    <edge id=":n14_5" function="internal">
        <lane id=":n14_5_0" index="0" speed="3.65" length="2.34" shape="113.60,151.60 112.40,150.80 112.00,150.00"/>
    </edge>
    <edge id=":n14_16" function="internal">
        <lane id=":n14_16_0" index="0" speed="10.88" length="17.57" shape="104.24,150.00 99.80,147.80 96.35,143.05 95.20,136.40"/>
    </edge>
    <edge id=":n14_17" function="internal">
        <lane id=":n14_17_0" index="0" speed="10.36" length="16.53" shape="105.87,150.00 102.20,147.80 99.35,143.05 98.40,136.40"/>
    </edge>
    <edge id=":n14_18" function="internal">
        <lane id=":n14_18_0" index="0" speed="3.65" length="2.34" shape="112.00,150.00 112.40,149.20 113.60,148.40"/>
    </edge>
    <edge id=":n14_6" function="internal">
        <lane id=":n14_6_0" index="0" speed="6.51" length="9.03" shape="108.00,136.40 108.35,138.85 109.40,140.60 111.15,141.65 113.60,142.00"/>
    </edge>
    <edge id=":n14_7" function="internal">
        <lane id=":n14_7_0" index="0" speed="8.00" length="14.19" shape="104.80,136.40 105.35,140.25 107.00,143.00 109.75,144.65 113.60,145.20"/>
    </edge>
    <edge id=":n14_8" function="internal">
        <lane id=":n14_8_0" index="0" speed="10.88" length="27.14" shape="101.60,136.40 100.65,144.45 97.80,150.20 93.05,153.65 86.40,154.80"/>
    </edge>
    <edge id=":n14_9" function="internal">
        <lane id=":n14_9_0" index="0" speed="10.36" length="24.51" shape="101.60,136.40 100.65,143.05 97.80,147.80 93.05,150.65 86.40,151.60"/>
    </edge>
    <edge id=":n14_10" function="internal">
        <lane id=":n14_10_0" index="0" speed="3.65" length="2.34" shape="101.60,136.40 100.80,137.60 100.00,138.00"/>
    </edge>
    <edge id=":n14_19" function="internal">
        <lane id=":n14_19_0" index="0" speed="3.65" length="2.34" shape="100.00,138.00 99.20,137.60 98.40,136.40"/>
    </edge>
    <edge id=":n14_11" function="internal">
        <lane id=":n14_11_0" index="0" speed="6.51" length="9.03" shape="86.40,142.00 88.85,141.65 90.60,140.60 91.65,138.85 92.00,136.40"/>
    </edge>
    <edge id=":n14_12" function="internal">
        <lane id=":n14_12_0" index="0" speed="13.90" length="27.20" shape="86.40,142.00 113.60,142.00"/>
        <lane id=":n14_12_1" index="1" speed="13.90" length="27.20" shape="86.40,145.20 113.60,145.20"/>
        <lane id=":n14_12_2" index="2" speed="13.90" length="27.20" shape="86.40,148.40 113.60,148.40"/>
    </edge>
    <edge id=":n14_15" function="internal">
        <lane id=":n14_15_0" index="0" speed="3.65" length="2.34" shape="86.40,148.40 87.60,149.20 88.00,150.00"/>
    </edge>
    <edge id=":n14_20" function="internal">
        <lane id=":n14_20_0" index="0" speed="3.65" length="2.34" shape="88.00,150.00 87.60,150.80 86.40,151.60"/>
    </edge>
    <edge id=":n15_0" function="internal">
        <lane id=":n15_0_0" index="0" speed="13.90" length="27.20" shape="63.60,158.00 36.40,158.00"/>
        <lane id=":n15_0_1" index="1" speed="13.90" length="27.20" shape="63.60,154.80 36.40,154.80"/>
        <lane id=":n15_0_2" index="2" speed="13.90" length="27.20" shape="63.60,151.60 36.40,151.60"/>
    </edge>
    <edge id=":n15_3" function="internal">
        <lane id=":n15_3_0" index="0" speed="10.88" length="9.57" shape="63.60,151.60 55.55,150.65 54.24,150.00"/>
    </edge>
    <edge id=":n15_4" function="internal">
        <lane id=":n15_4_0" index="0" speed="10.36" length="7.98" shape="63.60,151.60 56.95,150.65 55.87,150.00"/>
    </edge>
    <edge id=":n15_5" function="internal">
        <lane id=":n15_5_0" index="0" speed="3.65" length="2.34" shape="63.60,151.60 62.40,150.80 62.00,150.00"/>
    </edge>
    <edge id=":n15_16" function="internal">
        <lane id=":n15_16_0" index="0" speed="10.88" length="17.57" shape="54.24,150.00 49.80,147.80 46.35,143.05 45.20,136.40"/>
    </edge>
    <edge id=":n15_17" function="internal">
        <lane id=":n15_17_0" index="0" speed="10.36" length="16.53" shape="55.87,150.00 52.20,147.80 49.35,143.05 48.40,136.40"/>
    </edge>
    <edge id=":n15_18" function="internal">
        <lane id=":n15_18_0" index="0" speed="3.65" length="2.34" shape="62.00,150.00 62.40,149.20 63.60,148.40"/>
    </edge>
    <edge id=":n15_6" function="internal">
        <lane id=":n15_6_0" index="0" speed="6.51" length="9.03" shape="58.00,136.40 58.35,138.85 59.40,140.60 61.15,141.65 63.60,142.00"/>
    </edge>
    <edge id=":n15_7" function="internal">
        <lane id=":n15_7_0" index="0" speed="8.00" length="14.19" shape="54.80,136.40 55.35,140.25 57.00,143.00 59.75,144.65 63.60,145.20"/>
    </edge>
    <edge id=":n15_8" function="internal">
        <lane id=":n15_8_0" index="0" speed="10.88" length="27.14" shape="51.60,136.40 50.65,144.45 47.80,150.20 43.05,153.65 36.40,154.80"/>
    </edge>
    <edge id=":n15_9" function="internal">
        <lane id=":n15_9_0" index="0" speed="10.36" length="24.51" shape="51.60,136.40 50.65,143.05 47.80,147.80 43.05,150.65 36.40,151.60"/>
    </edge>
    <edge id=":n15_10" function="internal">
        <lane id=":n15_10_0" index="0" speed="3.65" length="2.34" shape="51.60,136.40 50.80,137.60 50.00,138.00"/>
    </edge>
    <edge id=":n15_19" function="internal">
        <lane id=":n15_19_0" index="0" speed="3.65" length="2.34" shape="50.00,138.00 49.20,137.60 48.40,136.40"/>
    </edge>
    <edge id=":n15_11" function="internal">
        <lane id=":n15_11_0" index="0" speed="6.51" length="9.03" shape="36.40,142.00 38.85,141.65 40.60,140.60 41.65,138.85 42.00,136.40"/>
    </edge>
    <edge id=":n15_12" function="internal">
        <lane id=":n15_12_0" index="0" speed="13.90" length="27.20" shape="36.40,142.00 63.60,142.00"/>
        <lane id=":n15_12_1" index="1" speed="13.90" length="27.20" shape="36.40,145.20 63.60,145.20"/>
        <lane id=":n15_12_2" index="2" speed="13.90" length="27.20" shape="36.40,148.40 63.60,148.40"/>
    </edge>
    <edge id=":n15_15" function="internal">
        <lane id=":n15_15_0" index="0" speed="3.65" length="2.34" shape="36.40,148.40 37.60,149.20 38.00,150.00"/>
    </edge>
    <edge id=":n15_20" function="internal">
        <lane id=":n15_20_0" index="0" speed="3.65" length="2.34" shape="38.00,150.00 37.60,150.80 36.40,151.60"/>
    </edge>
    <edge id=":n16_0" function="internal">
        <lane id=":n16_0_0" index="0" speed="11.12" length="28.38" shape="9.60,158.00 1.90,156.90 -3.60,153.60 -6.90,148.10 -8.00,140.40"/>
    </edge>
    <edge id=":n16_1" function="internal">
        <lane id=":n16_1_0" index="0" speed="10.10" length="23.22" shape="9.60,154.80 3.30,153.90 -1.20,151.20 -3.90,146.70 -4.80,140.40"/>
    </edge>
    <edge id=":n16_2" function="internal">
        <lane id=":n16_2_0" index="0" speed="8.96" length="18.06" shape="9.60,151.60 4.70,150.90 1.20,148.80 -0.90,145.30 -1.60,140.40"/>
    </edge>
    <edge id=":n16_3" function="internal">
        <lane id=":n16_3_0" index="0" speed="3.90" length="2.58" shape="8.00,140.40 8.10,141.10 8.40,141.60 8.90,141.90 9.60,142.00"/>
    </edge>
    <edge id=":n16_4" function="internal">
        <lane id=":n16_4_0" index="0" speed="6.08" length="7.74" shape="4.80,140.40 5.10,142.50 6.00,144.00 7.50,144.90 9.60,145.20"/>
    </edge>
    <edge id=":n16_5" function="internal">
        <lane id=":n16_5_0" index="0" speed="7.66" length="12.90" shape="1.60,140.40 2.10,143.90 3.60,146.40 6.10,147.90 9.60,148.40"/>
    </edge>
    <edge id=":n2_0" function="internal">
        <lane id=":n2_0_0" index="0" speed="6.51" length="9.03" shape="42.00,13.60 41.65,11.15 40.60,9.40 38.85,8.35 36.40,8.00"/>
    </edge>
    <edge id=":n2_1" function="internal">
        <lane id=":n2_1_0" index="0" speed="8.00" length="14.19" shape="45.20,13.60 44.65,9.75 43.00,7.00 40.25,5.35 36.40,4.80"/>
    </edge>
    <edge id=":n2_2" function="internal">
        <lane id=":n2_2_0" index="0" speed="10.88" length="27.14" shape="48.40,13.60 49.35,5.55 52.20,-0.20 56.95,-3.65 63.60,-4.80"/>
    </edge>
    <edge id=":n2_3" function="internal">
        <lane id=":n2_3_0" index="0" speed="10.36" length="24.51" shape="48.40,13.60 49.35,6.95 52.20,2.20 56.95,-0.65 63.60,-1.60"/>
    </edge>
    <edge id=":n2_4" function="internal">
        <lane id=":n2_4_0" index="0" speed="3.65" length="2.34" shape="48.40,13.60 49.20,12.40 50.00,12.00"/>
    </edge>
    <edge id=":n2_16" function="internal">
        <lane id=":n2_16_0" index="0" speed="3.65" length="2.34" shape="50.00,12.00 50.80,12.40 51.60,13.60"/>
    </edge>
    <edge id=":n2_5" function="internal">
        <lane id=":n2_5_0" index="0" speed="6.51" length="9.03" shape="63.60,8.00 61.15,8.35 59.40,9.40 58.35,11.15 58.00,13.60"/>
    </edge>
    <edge id=":n2_6" function="internal">
        <lane id=":n2_6_0" index="0" speed="13.90" length="27.20" shape="63.60,8.00 36.40,8.00"/>
        <lane id=":n2_6_1" index="1" speed="13.90" length="27.20" shape="63.60,4.80 36.40,4.80"/>
        <lane id=":n2_6_2" index="2" speed="13.90" length="27.20" shape="63.60,1.60 36.40,1.60"/>
    </edge>
    <edge id=":n2_9" function="internal">
        <lane id=":n2_9_0" index="0" speed="3.65" length="2.34" shape="63.60,1.60 62.40,0.80 62.00,0.00"/>
    </edge>
    <edge id=":n2_17" function="internal">
        <lane id=":n2_17_0" index="0" speed="3.65" length="2.34" shape="62.00,0.00 62.40,-0.80 63.60,-1.60"/>
    </edge>
    <edge id=":n2_10" function="internal">
        <lane id=":n2_10_0" index="0" speed="13.90" length="27.20" shape="36.40,-8.00 63.60,-8.00"/>
        <lane id=":n2_10_1" index="1" speed="13.90" length="27.20" shape="36.40,-4.80 63.60,-4.80"/>
        <lane id=":n2_10_2" index="2" speed="13.90" length="27.20" shape="36.40,-1.60 63.60,-1.60"/>
    </edge>
    <edge id=":n2_13" function="internal">
        <lane id=":n2_13_0" index="0" speed="10.88" length="9.57" shape="36.40,-1.60 44.45,-0.65 45.76,-0.00"/>
    </edge>
    <edge id=":n2_14" function="internal">
        <lane id=":n2_14_0" index="0" speed="10.36" length="7.98" shape="36.40,-1.60 43.05,-0.65 44.13,0.00"/>
    </edge>
    <edge id=":n2_15" function="internal">
        <lane id=":n2_15_0" index="0" speed="3.65" length="2.34" shape="36.40,-1.60 37.60,-0.80 38.00,0.00"/>
    </edge>
    <edge id=":n2_18" function="internal">
        <lane id=":n2_18_0" index="0" speed="10.88" length="17.57" shape="45.76,-0.00 50.20,2.20 53.65,6.95 54.80,13.60"/>
    </edge>
    <edge id=":n2_19" function="internal">
        <lane id=":n2_19_0" index="0" speed="10.36" length="16.53" shape="44.13,0.00 47.80,2.20 50.65,6.95 51.60,13.60"/>
    </edge>
    <edge id=":n2_20" function="internal">
        <lane id=":n2_20_0" index="0" speed="3.65" length="2.34" shape="38.00,0.00 37.60,0.80 36.40,1.60"/>
    </edge>
    <edge id=":n3_0" function="internal">
        <lane id=":n3_0_0" index="0" speed="6.51" length="9.03" shape="42.00,63.60 41.65,61.15 40.60,59.40 38.85,58.35 36.40,58.00"/>
    </edge>
    <edge id=":n3_1" function="internal">
        <lane id=":n3_1_0" index="0" speed="13.90" length="27.20" shape="42.00,63.60 42.00,36.40"/>
        <lane id=":n3_1_1" index="1" speed="13.90" length="27.20" shape="45.20,63.60 45.20,36.40"/>
        <lane id=":n3_1_2" index="2" speed="13.90" length="27.20" shape="48.40,63.60 48.40,36.40"/>
    </edge>
    <edge id=":n3_4" function="internal">
        <lane id=":n3_4_0" index="0" speed="10.36" length="7.98" shape="48.40,63.60 49.35,56.95 50.00,55.87"/>
    </edge>
    <edge id=":n3_5" function="internal">
        <lane id=":n3_5_0" index="0" speed="3.65" length="2.34" shape="48.40,63.60 49.20,62.40 50.00,62.00"/>
    </edge>
    <edge id=":n3_24" function="internal">
        <lane id=":n3_24_0" index="0" speed="10.36" length="16.53" shape="50.00,55.87 52.20,52.20 56.95,49.35 63.60,48.40"/>
    </edge>
    <edge id=":n3_25" function="internal">
        <lane id=":n3_25_0" index="0" speed="3.65" length="2.34" shape="50.00,62.00 50.80,62.40 51.60,63.60"/>
    </edge>
    <edge id=":n3_6" function="internal">
        <lane id=":n3_6_0" index="0" speed="6.51" length="9.03" shape="63.60,58.00 61.15,58.35 59.40,59.40 58.35,61.15 58.00,63.60"/>
    </edge>
    <edge id=":n3_7" function="internal">
        <lane id=":n3_7_0" index="0" speed="13.90" length="27.20" shape="63.60,58.00 36.40,58.00"/>
        <lane id=":n3_7_1" index="1" speed="13.90" length="27.20" shape="63.60,54.80 36.40,54.80"/>
        <lane id=":n3_7_2" index="2" speed="13.90" length="27.20" shape="63.60,51.60 36.40,51.60"/>
    </edge>
    <edge id=":n3_10" function="internal">
        <lane id=":n3_10_0" index="0" speed="10.36" length="7.98" shape="63.60,51.60 56.95,50.65 55.87,50.00"/>
    </edge>
    <edge id=":n3_11" function="internal">
        <lane id=":n3_11_0" index="0" speed="3.65" length="2.34" shape="63.60,51.60 62.40,50.80 62.00,50.00"/>
    </edge>
    <edge id=":n3_26" function="internal">
        <lane id=":n3_26_0" index="0" speed="10.36" length="16.53" shape="55.87,50.00 52.20,47.80 49.35,43.05 48.40,36.40"/>
    </edge>
    <edge id=":n3_27" function="internal">
        <lane id=":n3_27_0" index="0" speed="3.65" length="2.34" shape="62.00,50.00 62.40,49.20 63.60,48.40"/>
    </edge>
    <edge id=":n3_12" function="internal">
        <lane id=":n3_12_0" index="0" speed="6.51" length="9.03" shape="58.00,36.40 58.35,38.85 59.40,40.60 61.15,41.65 63.60,42.00"/>
    </edge>
    <edge id=":n3_13" function="internal">
        <lane id=":n3_13_0" index="0" speed="13.90" length="27.20" shape="58.00,36.40 58.00,63.60"/>
        <lane id=":n3_13_1" index="1" speed="13.90" length="27.20" shape="54.80,36.40 54.80,63.60"/>
        <lane id=":n3_13_2" index="2" speed="13.90" length="27.20" shape="51.60,36.40 51.60,63.60"/>
    </edge>
    <edge id=":n3_16" function="internal">
        <lane id=":n3_16_0" index="0" speed="10.36" length="7.98" shape="51.60,36.40 50.65,43.05 50.00,44.13"/>
    </edge>
    <edge id=":n3_17" function="internal">
        <lane id=":n3_17_0" index="0" speed="3.65" length="2.34" shape="51.60,36.40 50.80,37.60 50.00,38.00"/>
    </edge>
    <edge id=":n3_28" function="internal">
        <lane id=":n3_28_0" index="0" speed="10.36" length="16.53" shape="50.00,44.13 47.80,47.80 43.05,50.65 36.40,51.60"/>
    </edge>
    <edge id=":n3_29" function="internal">
        <lane id=":n3_29_0" index="0" speed="3.65" length="2.34" shape="50.00,38.00 49.20,37.60 48.40,36.40"/>
    </edge>
    <edge id=":n3_18" function="internal">
        <lane id=":n3_18_0" index="0" speed="6.51" length="9.03" shape="36.40,42.00 38.85,41.65 40.60,40.60 41.65,38.85 42.00,36.40"/>
    </edge>
    <edge id=":n3_19" function="internal">
        <lane id=":n3_19_0" index="0" speed="13.90" length="27.20" shape="36.40,42.00 63.60,42.00"/>
        <lane id=":n3_19_1" index="1" speed="13.90" length="27.20" shape="36.40,45.20 63.60,45.20"/>
        <lane id=":n3_19_2" index="2" speed="13.90" length="27.20" shape="36.40,48.40 63.60,48.40"/>
    </edge>
    <edge id=":n3_22" function="internal">
        <lane id=":n3_22_0" index="0" speed="10.36" length="7.98" shape="36.40,48.40 43.05,49.35 44.13,50.00"/>
    </edge>
    <edge id=":n3_23" function="internal">
        <lane id=":n3_23_0" index="0" speed="3.65" length="2.34" shape="36.40,48.40 37.60,49.20 38.00,50.00"/>
    </edge>
    <edge id=":n3_30" function="internal">
        <lane id=":n3_30_0" index="0" speed="10.36" length="16.53" shape="44.13,50.00 47.80,52.20 50.65,56.95 51.60,63.60"/>
    </edge>
    <edge id=":n3_31" function="internal">
        <lane id=":n3_31_0" index="0" speed="3.65" length="2.34" shape="38.00,50.00 37.60,50.80 36.40,51.60"/>
    </edge>
    <edge id=":n4_0" function="internal">
        <lane id=":n4_0_0" index="0" speed="13.90" length="27.20" shape="-8.00,63.60 -8.00,36.40"/>
        <lane id=":n4_0_1" index="1" speed="13.90" length="27.20" shape="-4.80,63.60 -4.80,36.40"/>
        <lane id=":n4_0_2" index="2" speed="13.90" length="27.20" shape="-1.60,63.60 -1.60,36.40"/>
    </edge>
    <edge id=":n4_3" function="internal">
        <lane id=":n4_3_0" index="0" speed="10.88" length="9.57" shape="-1.60,63.60 -0.65,55.55 0.00,54.24"/>
    </edge>
    <edge id=":n4_4" function="internal">
        <lane id=":n4_4_0" index="0" speed="10.36" length="7.98" shape="-1.60,63.60 -0.65,56.95 0.00,55.87"/>
    </edge>
    <edge id=":n4_5" function="internal">
        <lane id=":n4_5_0" index="0" speed="3.65" length="2.34" shape="-1.60,63.60 -0.80,62.40 0.00,62.00"/>
    </edge>
    <edge id=":n4_16" function="internal">
        <lane id=":n4_16_0" index="0" speed="10.88" length="17.57" shape="0.00,54.24 2.20,49.80 6.95,46.35 13.60,45.20"/>
    </edge>
    <edge id=":n4_17" function="internal">
        <lane id=":n4_17_0" index="0" speed="10.36" length="16.53" shape="0.00,55.87 2.20,52.20 6.95,49.35 13.60,48.40"/>
    </edge>
    <edge id=":n4_18" function="internal">
        <lane id=":n4_18_0" index="0" speed="3.65" length="2.34" shape="0.00,62.00 0.80,62.40 1.60,63.60"/>
    </edge>
    <edge id=":n4_6" function="internal">
        <lane id=":n4_6_0" index="0" speed="6.51" length="9.03" shape="13.60,58.00 11.15,58.35 9.40,59.40 8.35,61.15 8.00,63.60"/>
    </edge>
    <edge id=":n4_7" function="internal">
        <lane id=":n4_7_0" index="0" speed="8.00" length="14.19" shape="13.60,54.80 9.75,55.35 7.00,57.00 5.35,59.75 4.80,63.60"/>
    </edge>
    <edge id=":n4_8" function="internal">