<?xml version="1.0" encoding="UTF-8"?>

<!-- generated on Wed Dec 16 12:20:45 2020 by Eclipse SUMO netconvert Version 1.8.0
<configuration xmlns:xsi="http://www.w3.org/2001/XMLSchema-instance" xsi:noNamespaceSchemaLocation="http://sumo.dlr.de/xsd/netconvertConfiguration.xsd">

    <input>
        <node-files value="/Users/Matteo/PycharmProjects/TrafficEmu/grid_simulation/grid_plain_xml/nodes.nod.xml"/>
        <edge-files value="/Users/Matteo/PycharmProjects/TrafficEmu/grid_simulation/grid_plain_xml/edges.edg.xml"/>
        <type-files value="/Users/Matteo/PycharmProjects/TrafficEmu/grid_simulation/grid_plain_xml/edge_types.typ.xml"/>
    </input>

    <output>
        <output-file value="/Users/Matteo/PycharmProjects/TrafficEmu/grid_simulation/grid.net.xml"/>
    </output>

    <report>
        <aggregate-warnings value="5"/>
    </report>

</configuration>
-->

<net version="1.6" junctionCornerDetail="5" limitTurnSpeed="5.50" xmlns:xsi="http://www.w3.org/2001/XMLSchema-instance" xsi:noNamespaceSchemaLocation="http://sumo.dlr.de/xsd/net_file.xsd">

    <location netOffset="0.00,0.00" convBoundary="0.00,0.00,150.00,150.00" origBoundary="0.00,0.00,150.00,150.00" projParameter="!"/>

    <type id="normal_road" priority="0" numLanes="1" speed="13.90"/>
    <type id="normal_road_2lanes" priority="0" numLanes="2" speed="13.90"/>
    <type id="normal_road_3lanes" priority="0" numLanes="3" speed="13.90"/>
    <type id="normal_road_4lanes" priority="0" numLanes="4" speed="13.90"/>

    <edge id=":n1_0" function="internal">
        <lane id=":n1_0_0" index="0" speed="8.96" length="18.06" shape="-4.80,6.40 -4.10,1.50 -2.00,-2.00 1.50,-4.10 6.40,-4.80"/>
    </edge>
    <edge id=":n1_1" function="internal">
        <lane id=":n1_1_0" index="0" speed="7.66" length="12.90" shape="-1.60,6.40 -1.10,2.90 0.40,0.40 2.90,-1.10 6.40,-1.60"/>
    </edge>
    <edge id=":n1_2" function="internal">
        <lane id=":n1_2_0" index="0" speed="3.90" length="2.58" shape="6.40,4.80 5.70,4.90 5.20,5.20 4.90,5.70 4.80,6.40"/>
    </edge>
    <edge id=":n1_3" function="internal">
        <lane id=":n1_3_0" index="0" speed="6.08" length="7.74" shape="6.40,1.60 4.30,1.90 2.80,2.80 1.90,4.30 1.60,6.40"/>
    </edge>
    <edge id=":n10_0" function="internal">
        <lane id=":n10_0_0" index="0" speed="3.90" length="2.58" shape="145.20,6.40 145.10,5.70 144.80,5.20 144.30,4.90 143.60,4.80"/>
    </edge>
    <edge id=":n10_1" function="internal">
        <lane id=":n10_1_0" index="0" speed="6.08" length="7.74" shape="148.40,6.40 148.10,4.30 147.20,2.80 145.70,1.90 143.60,1.60"/>
    </edge>
    <edge id=":n10_2" function="internal">
        <lane id=":n10_2_0" index="0" speed="8.96" length="18.06" shape="143.60,-4.80 148.50,-4.10 152.00,-2.00 154.10,1.50 154.80,6.40"/>
    </edge>
    <edge id=":n10_3" function="internal">
        <lane id=":n10_3_0" index="0" speed="7.66" length="12.90" shape="143.60,-1.60 147.10,-1.10 149.60,0.40 151.10,2.90 151.60,6.40"/>
    </edge>
    <edge id=":n11_0" function="internal">
        <lane id=":n11_0_0" index="0" speed="6.51" length="9.03" shape="145.20,60.40 144.85,57.95 143.80,56.20 142.05,55.15 139.60,54.80"/>
    </edge>
    <edge id=":n11_1" function="internal">
        <lane id=":n11_1_0" index="0" speed="13.90" length="20.80" shape="145.20,60.40 145.20,39.60"/>
        <lane id=":n11_1_1" index="1" speed="13.90" length="20.80" shape="148.40,60.40 148.40,39.60"/>
    </edge>
    <edge id=":n11_3" function="internal">
        <lane id=":n11_3_0" index="0" speed="3.65" length="2.34" shape="148.40,60.40 149.20,59.20 150.00,58.80"/>
    </edge>
    <edge id=":n11_12" function="internal">
        <lane id=":n11_12_0" index="0" speed="3.65" length="2.34" shape="150.00,58.80 150.80,59.20 151.60,60.40"/>
    </edge>
    <edge id=":n11_4" function="internal">
        <lane id=":n11_4_0" index="0" speed="13.90" length="20.80" shape="154.80,39.60 154.80,60.40"/>
        <lane id=":n11_4_1" index="1" speed="13.90" length="20.80" shape="151.60,39.60 151.60,60.40"/>
    </edge>
    <edge id=":n11_6" function="internal">
        <lane id=":n11_6_0" index="0" speed="9.26" length="6.96" shape="151.60,39.60 150.85,44.85 150.00,46.27"/>
    </edge>
    <edge id=":n11_7" function="internal">
        <lane id=":n11_7_0" index="0" speed="3.65" length="2.34" shape="151.60,39.60 150.80,40.80 150.00,41.20"/>
    </edge>
    <edge id=":n11_13" function="internal">
        <lane id=":n11_13_0" index="0" speed="9.26" length="12.40" shape="150.00,46.27 148.60,48.60 144.85,50.85 139.60,51.60"/>
    </edge>
    <edge id=":n11_14" function="internal">
        <lane id=":n11_14_0" index="0" speed="3.65" length="2.34" shape="150.00,41.20 149.20,40.80 148.40,39.60"/>
    </edge>
    <edge id=":n11_8" function="internal">
        <lane id=":n11_8_0" index="0" speed="6.51" length="9.03" shape="139.60,45.20 142.05,44.85 143.80,43.80 144.85,42.05 145.20,39.60"/>
    </edge>
    <edge id=":n11_9" function="internal">
        <lane id=":n11_9_0" index="0" speed="8.00" length="14.19" shape="139.60,48.40 143.45,47.85 146.20,46.20 147.85,43.45 148.40,39.60"/>
    </edge>
    <edge id=":n11_10" function="internal">
        <lane id=":n11_10_0" index="0" speed="9.26" length="19.35" shape="139.60,48.40 144.85,49.15 148.60,51.40 150.85,55.15 151.60,60.40"/>
    </edge>
    <edge id=":n11_11" function="internal">
        <lane id=":n11_11_0" index="0" speed="3.65" length="2.34" shape="139.60,48.40 140.80,49.20 141.20,50.00"/>
    </edge>
    <edge id=":n11_15" function="internal">
        <lane id=":n11_15_0" index="0" speed="3.65" length="2.34" shape="141.20,50.00 140.80,50.80 139.60,51.60"/>
    </edge>
    <edge id=":n12_0" function="internal">
        <lane id=":n12_0_0" index="0" speed="6.51" length="9.03" shape="145.20,110.40 144.85,107.95 143.80,106.20 142.05,105.15 139.60,104.80"/>
    </edge>
    <edge id=":n12_1" function="internal">
        <lane id=":n12_1_0" index="0" speed="13.90" length="20.80" shape="145.20,110.40 145.20,89.60"/>
        <lane id=":n12_1_1" index="1" speed="13.90" length="20.80" shape="148.40,110.40 148.40,89.60"/>
    </edge>
    <edge id=":n12_3" function="internal">
        <lane id=":n12_3_0" index="0" speed="3.65" length="2.34" shape="148.40,110.40 149.20,109.20 150.00,108.80"/>
    </edge>
    <edge id=":n12_12" function="internal">
        <lane id=":n12_12_0" index="0" speed="3.65" length="2.34" shape="150.00,108.80 150.80,109.20 151.60,110.40"/>
    </edge>
    <edge id=":n12_4" function="internal">
        <lane id=":n12_4_0" index="0" speed="13.90" length="20.80" shape="154.80,89.60 154.80,110.40"/>
        <lane id=":n12_4_1" index="1" speed="13.90" length="20.80" shape="151.60,89.60 151.60,110.40"/>
    </edge>
    <edge id=":n12_6" function="internal">
        <lane id=":n12_6_0" index="0" speed="9.26" length="6.96" shape="151.60,89.60 150.85,94.85 150.00,96.27"/>
    </edge>
    <edge id=":n12_7" function="internal">
        <lane id=":n12_7_0" index="0" speed="3.65" length="2.34" shape="151.60,89.60 150.80,90.80 150.00,91.20"/>
    </edge>
    <edge id=":n12_13" function="internal">
        <lane id=":n12_13_0" index="0" speed="9.26" length="12.40" shape="150.00,96.27 148.60,98.60 144.85,100.85 139.60,101.60"/>
    </edge>
    <edge id=":n12_14" function="internal">
        <lane id=":n12_14_0" index="0" speed="3.65" length="2.34" shape="150.00,91.20 149.20,90.80 148.40,89.60"/>
    </edge>
    <edge id=":n12_8" function="internal">
        <lane id=":n12_8_0" index="0" speed="6.51" length="9.03" shape="139.60,95.20 142.05,94.85 143.80,93.80 144.85,92.05 145.20,89.60"/>
    </edge>
    <edge id=":n12_9" function="internal">
        <lane id=":n12_9_0" index="0" speed="8.00" length="14.19" shape="139.60,98.40 143.45,97.85 146.20,96.20 147.85,93.45 148.40,89.60"/>
    </edge>
    <edge id=":n12_10" function="internal">
        <lane id=":n12_10_0" index="0" speed="9.26" length="19.35" shape="139.60,98.40 144.85,99.15 148.60,101.40 150.85,105.15 151.60,110.40"/>
    </edge>
    <edge id=":n12_11" function="internal">
        <lane id=":n12_11_0" index="0" speed="3.65" length="2.34" shape="139.60,98.40 140.80,99.20 141.20,100.00"/>
    </edge>
    <edge id=":n12_15" function="internal">
        <lane id=":n12_15_0" index="0" speed="3.65" length="2.34" shape="141.20,100.00 140.80,100.80 139.60,101.60"/>
    </edge>
    <edge id=":n13_0" function="internal">
        <lane id=":n13_0_0" index="0" speed="8.96" length="18.06" shape="154.80,143.60 154.10,148.50 152.00,152.00 148.50,154.10 143.60,154.80"/>
    </edge>
    <edge id=":n13_1" function="internal">
        <lane id=":n13_1_0" index="0" speed="7.66" length="12.90" shape="151.60,143.60 151.10,147.10 149.60,149.60 147.10,151.10 143.60,151.60"/>
    </edge>
    <edge id=":n13_2" function="internal">
        <lane id=":n13_2_0" index="0" speed="3.90" length="2.58" shape="143.60,145.20 144.30,145.10 144.80,144.80 145.10,144.30 145.20,143.60"/>
    </edge>
    <edge id=":n13_3" function="internal">
        <lane id=":n13_3_0" index="0" speed="6.08" length="7.74" shape="143.60,148.40 145.70,148.10 147.20,147.20 148.10,145.70 148.40,143.60"/>
    </edge>
    <edge id=":n14_0" function="internal">
        <lane id=":n14_0_0" index="0" speed="13.90" length="20.80" shape="110.40,154.80 89.60,154.80"/>
        <lane id=":n14_0_1" index="1" speed="13.90" length="20.80" shape="110.40,151.60 89.60,151.60"/>
    </edge>
    <edge id=":n14_2" function="internal">
        <lane id=":n14_2_0" index="0" speed="9.26" length="6.96" shape="110.40,151.60 105.15,150.85 103.73,150.00"/>
    </edge>
    <edge id=":n14_3" function="internal">
        <lane id=":n14_3_0" index="0" speed="3.65" length="2.34" shape="110.40,151.60 109.20,150.80 108.80,150.00"/>
    </edge>
    <edge id=":n14_12" function="internal">
        <lane id=":n14_12_0" index="0" speed="9.26" length="12.40" shape="103.73,150.00 101.40,148.60 99.15,144.85 98.40,139.60"/>
    </edge>
    <edge id=":n14_13" function="internal">
        <lane id=":n14_13_0" index="0" speed="3.65" length="2.34" shape="108.80,150.00 109.20,149.20 110.40,148.40"/>
    </edge>
    <edge id=":n14_4" function="internal">
        <lane id=":n14_4_0" index="0" speed="6.51" length="9.03" shape="104.80,139.60 105.15,142.05 106.20,143.80 107.95,144.85 110.40,145.20"/>
    </edge>
    <edge id=":n14_5" function="internal">
        <lane id=":n14_5_0" index="0" speed="8.00" length="14.19" shape="101.60,139.60 102.15,143.45 103.80,146.20 106.55,147.85 110.40,148.40"/>
    </edge>
    <edge id=":n14_6" function="internal">
        <lane id=":n14_6_0" index="0" speed="9.26" length="19.35" shape="101.60,139.60 100.85,144.85 98.60,148.60 94.85,150.85 89.60,151.60"/>
    </edge>
    <edge id=":n14_7" function="internal">
        <lane id=":n14_7_0" index="0" speed="3.65" length="2.34" shape="101.60,139.60 100.80,140.80 100.00,141.20"/>
    </edge>
    <edge id=":n14_14" function="internal">
        <lane id=":n14_14_0" index="0" speed="3.65" length="2.34" shape="100.00,141.20 99.20,140.80 98.40,139.60"/>
    </edge>
    <edge id=":n14_8" function="internal">
        <lane id=":n14_8_0" index="0" speed="6.51" length="9.03" shape="89.60,145.20 92.05,144.85 93.80,143.80 94.85,142.05 95.20,139.60"/>
    </edge>
    <edge id=":n14_9" function="internal">
        <lane id=":n14_9_0" index="0" speed="13.90" length="20.80" shape="89.60,145.20 110.40,145.20"/>
        <lane id=":n14_9_1" index="1" speed="13.90" length="20.80" shape="89.60,148.40 110.40,148.40"/>
    </edge>
    <edge id=":n14_11" function="internal">
        <lane id=":n14_11_0" index="0" speed="3.65" length="2.34" shape="89.60,148.40 90.80,149.20 91.20,150.00"/>
    </edge>
    <edge id=":n14_15" function="internal">
        <lane id=":n14_15_0" index="0" speed="3.65" length="2.34" shape="91.20,150.00 90.80,150.80 89.60,151.60"/>
    </edge>
    <edge id=":n15_0" function="internal">
        <lane id=":n15_0_0" index="0" speed="13.90" length="20.80" shape="60.40,154.80 39.60,154.80"/>
        <lane id=":n15_0_1" index="1" speed="13.90" length="20.80" shape="60.40,151.60 39.60,151.60"/>
    </edge>
    <edge id=":n15_2" function="internal">
        <lane id=":n15_2_0" index="0" speed="9.26" length="6.96" shape="60.40,151.60 55.15,150.85 53.73,150.00"/>
    </edge>
    <edge id=":n15_3" function="internal">
        <lane id=":n15_3_0" index="0" speed="3.65" length="2.34" shape="60.40,151.60 59.20,150.80 58.80,150.00"/>
    </edge>
    <edge id=":n15_12" function="internal">
        <lane id=":n15_12_0" index="0" speed="9.26" length="12.40" shape="53.73,150.00 51.40,148.60 49.15,144.85 48.40,139.60"/>
    </edge>
    <edge id=":n15_13" function="internal">
        <lane id=":n15_13_0" index="0" speed="3.65" length="2.34" shape="58.80,150.00 59.20,149.20 60.40,148.40"/>
    </edge>
    <edge id=":n15_4" function="internal">
        <lane id=":n15_4_0" index="0" speed="6.51" length="9.03" shape="54.80,139.60 55.15,142.05 56.20,143.80 57.95,144.85 60.40,145.20"/>
    </edge>
    <edge id=":n15_5" function="internal">
        <lane id=":n15_5_0" index="0" speed="8.00" length="14.19" shape="51.60,139.60 52.15,143.45 53.80,146.20 56.55,147.85 60.40,148.40"/>
    </edge>
    <edge id=":n15_6" function="internal">
        <lane id=":n15_6_0" index="0" speed="9.26" length="19.35" shape="51.60,139.60 50.85,144.85 48.60,148.60 44.85,150.85 39.60,151.60"/>
    </edge>
    <edge id=":n15_7" function="internal">
        <lane id=":n15_7_0" index="0" speed="3.65" length="2.34" shape="51.60,139.60 50.80,140.80 50.00,141.20"/>
    </edge>
    <edge id=":n15_14" function="internal">
        <lane id=":n15_14_0" index="0" speed="3.65" length="2.34" shape="50.00,141.20 49.20,140.80 48.40,139.60"/>
    </edge>
    <edge id=":n15_8" function="internal">
        <lane id=":n15_8_0" index="0" speed="6.51" length="9.03" shape="39.60,145.20 42.05,144.85 43.80,143.80 44.85,142.05 45.20,139.60"/>
    </edge>
    <edge id=":n15_9" function="internal">
        <lane id=":n15_9_0" index="0" speed="13.90" length="20.80" shape="39.60,145.20 60.40,145.20"/>
        <lane id=":n15_9_1" index="1" speed="13.90" length="20.80" shape="39.60,148.40 60.40,148.40"/>
    </edge>
    <edge id=":n15_11" function="internal">
        <lane id=":n15_11_0" index="0" speed="3.65" length="2.34" shape="39.60,148.40 40.80,149.20 41.20,150.00"/>
    </edge>
    <edge id=":n15_15" function="internal">
        <lane id=":n15_15_0" index="0" speed="3.65" length="2.34" shape="41.20,150.00 40.80,150.80 39.60,151.60"/>
    </edge>
    <edge id=":n16_0" function="internal">
        <lane id=":n16_0_0" index="0" speed="8.96" length="18.06" shape="6.40,154.80 1.50,154.10 -2.00,152.00 -4.10,148.50 -4.80,143.60"/>
    </edge>
    <edge id=":n16_1" function="internal">
        <lane id=":n16_1_0" index="0" speed="7.66" length="12.90" shape="6.40,151.60 2.90,151.10 0.40,149.60 -1.10,147.10 -1.60,143.60"/>
    </edge>
    <edge id=":n16_2" function="internal">
        <lane id=":n16_2_0" index="0" speed="3.90" length="2.58" shape="4.80,143.60 4.90,144.30 5.20,144.80 5.70,145.10 6.40,145.20"/>
    </edge>
    <edge id=":n16_3" function="internal">
        <lane id=":n16_3_0" index="0" speed="6.08" length="7.74" shape="1.60,143.60 1.90,145.70 2.80,147.20 4.30,148.10 6.40,148.40"/>
    </edge>
    <edge id=":n2_0" function="internal">
        <lane id=":n2_0_0" index="0" speed="6.51" length="9.03" shape="45.20,10.40 44.85,7.95 43.80,6.20 42.05,5.15 39.60,4.80"/>
    </edge>
    <edge id=":n2_1" function="internal">
        <lane id=":n2_1_0" index="0" speed="8.00" length="14.19" shape="48.40,10.40 47.85,6.55 46.20,3.80 43.45,2.15 39.60,1.60"/>
    </edge>
    <edge id=":n2_2" function="internal">
        <lane id=":n2_2_0" index="0" speed="9.26" length="19.35" shape="48.40,10.40 49.15,5.15 51.40,1.40 55.15,-0.85 60.40,-1.60"/>
    </edge>
    <edge id=":n2_3" function="internal">
        <lane id=":n2_3_0" index="0" speed="3.65" length="2.34" shape="48.40,10.40 49.20,9.20 50.00,8.80"/>
    </edge>
    <edge id=":n2_12" function="internal">
        <lane id=":n2_12_0" index="0" speed="3.65" length="2.34" shape="50.00,8.80 50.80,9.20 51.60,10.40"/>
    </edge>
    <edge id=":n2_4" function="internal">
        <lane id=":n2_4_0" index="0" speed="6.51" length="9.03" shape="60.40,4.80 57.95,5.15 56.20,6.20 55.15,7.95 54.80,10.40"/>
    </edge>
    <edge id=":n2_5" function="internal">
        <lane id=":n2_5_0" index="0" speed="13.90" length="20.80" shape="60.40,4.80 39.60,4.80"/>
        <lane id=":n2_5_1" index="1" speed="13.90" length="20.80" shape="60.40,1.60 39.60,1.60"/>
    </edge>
    <edge id=":n2_7" function="internal">
        <lane id=":n2_7_0" index="0" speed="3.65" length="2.34" shape="60.40,1.60 59.20,0.80 58.80,0.00"/>
    </edge>
    <edge id=":n2_13" function="internal">
        <lane id=":n2_13_0" index="0" speed="3.65" length="2.34" shape="58.80,0.00 59.20,-0.80 60.40,-1.60"/>
    </edge>
    <edge id=":n2_8" function="internal">
        <lane id=":n2_8_0" index="0" speed="13.90" length="20.80" shape="39.60,-4.80 60.40,-4.80"/>
        <lane id=":n2_8_1" index="1" speed="13.90" length="20.80" shape="39.60,-1.60 60.40,-1.60"/>
    </edge>
    <edge id=":n2_10" function="internal">
        <lane id=":n2_10_0" index="0" speed="9.26" length="6.96" shape="39.60,-1.60 44.85,-0.85 46.27,-0.00"/>
    </edge>
    <edge id=":n2_11" function="internal">
        <lane id=":n2_11_0" index="0" speed="3.65" length="2.34" shape="39.60,-1.60 40.80,-0.80 41.20,0.00"/>
    </edge>
    <edge id=":n2_14" function="internal">
        <lane id=":n2_14_0" index="0" speed="9.26" length="12.40" shape="46.27,-0.00 48.60,1.40 50.85,5.15 51.60,10.40"/>
    </edge>
    <edge id=":n2_15" function="internal">
        <lane id=":n2_15_0" index="0" speed="3.65" length="2.34" shape="41.20,0.00 40.80,0.80 39.60,1.60"/>
    </edge>
    <edge id=":n3_0" function="internal">
        <lane id=":n3_0_0" index="0" speed="6.51" length="9.03" shape="45.20,60.40 44.85,57.95 43.80,56.20 42.05,55.15 39.60,54.80"/>
    </edge>
    <edge id=":n3_1" function="internal">
        <lane id=":n3_1_0" index="0" speed="13.90" length="20.80" shape="45.20,60.40 45.20,39.60"/>
        <lane id=":n3_1_1" index="1" speed="13.90" length="20.80" shape="48.40,60.40 48.40,39.60"/>
    </edge>
    <edge id=":n3_3" function="internal">
        <lane id=":n3_3_0" index="0" speed="9.26" length="6.96" shape="48.40,60.40 49.15,55.15 50.00,53.73"/>
    </edge>
    <edge id=":n3_4" function="internal">
        <lane id=":n3_4_0" index="0" speed="3.65" length="2.34" shape="48.40,60.40 49.20,59.20 50.00,58.80"/>
    </edge>
    <edge id=":n3_20" function="internal">
        <lane id=":n3_20_0" index="0" speed="9.26" length="12.40" shape="50.00,53.73 51.40,51.40 55.15,49.15 60.40,48.40"/>
    </edge>
    <edge id=":n3_21" function="internal">
        <lane id=":n3_21_0" index="0" speed="3.65" length="2.34" shape="50.00,58.80 50.80,59.20 51.60,60.40"/>
    </edge>
    <edge id=":n3_5" function="internal">
        <lane id=":n3_5_0" index="0" speed="6.51" length="9.03" shape="60.40,54.80 57.95,55.15 56.20,56.20 55.15,57.95 54.80,60.40"/>
    </edge>
    <edge id=":n3_6" function="internal">
        <lane id=":n3_6_0" index="0" speed="13.90" length="20.80" shape="60.40,54.80 39.60,54.80"/>
        <lane id=":n3_6_1" index="1" speed="13.90" length="20.80" shape="60.40,51.60 39.60,51.60"/>
    </edge>
    <edge id=":n3_8" function="internal">
        <lane id=":n3_8_0" index="0" speed="9.26" length="6.96" shape="60.40,51.60 55.15,50.85 53.73,50.00"/>
    </edge>
    <edge id=":n3_9" function="internal">
        <lane id=":n3_9_0" index="0" speed="3.65" length="2.34" shape="60.40,51.60 59.20,50.80 58.80,50.00"/>
    </edge>
    <edge id=":n3_22" function="internal">
        <lane id=":n3_22_0" index="0" speed="9.26" length="12.40" shape="53.73,50.00 51.40,48.60 49.15,44.85 48.40,39.60"/>
    </edge>
    <edge id=":n3_23" function="internal">
        <lane id=":n3_23_0" index="0" speed="3.65" length="2.34" shape="58.80,50.00 59.20,49.20 60.40,48.40"/>
    </edge>
    <edge id=":n3_10" function="internal">
        <lane id=":n3_10_0" index="0" speed="6.51" length="9.03" shape="54.80,39.60 55.15,42.05 56.20,43.80 57.95,44.85 60.40,45.20"/>
    </edge>
    <edge id=":n3_11" function="internal">
        <lane id=":n3_11_0" index="0" speed="13.90" length="20.80" shape="54.80,39.60 54.80,60.40"/>
        <lane id=":n3_11_1" index="1" speed="13.90" length="20.80" shape="51.60,39.60 51.60,60.40"/>
    </edge>
    <edge id=":n3_13" function="internal">
        <lane id=":n3_13_0" index="0" speed="9.26" length="6.96" shape="51.60,39.60 50.85,44.85 50.00,46.27"/>
    </edge>
    <edge id=":n3_14" function="internal">
        <lane id=":n3_14_0" index="0" speed="3.65" length="2.34" shape="51.60,39.60 50.80,40.80 50.00,41.20"/>
    </edge>
    <edge id=":n3_24" function="internal">
        <lane id=":n3_24_0" index="0" speed="9.26" length="12.40" shape="50.00,46.27 48.60,48.60 44.85,50.85 39.60,51.60"/>
    </edge>
    <edge id=":n3_25" function="internal">
        <lane id=":n3_25_0" index="0" speed="3.65" length="2.34" shape="50.00,41.20 49.20,40.80 48.40,39.60"/>
    </edge>
    <edge id=":n3_15" function="internal">
        <lane id=":n3_15_0" index="0" speed="6.51" length="9.03" shape="39.60,45.20 42.05,44.85 43.80,43.80 44.85,42.05 45.20,39.60"/>
    </edge>
    <edge id=":n3_16" function="internal">
        <lane id=":n3_16_0" index="0" speed="13.90" length="20.80" shape="39.60,45.20 60.40,45.20"/>
        <lane id=":n3_16_1" index="1" speed="13.90" length="20.80" shape="39.60,48.40 60.40,48.40"/>
    </edge>
    <edge id=":n3_18" function="internal">
        <lane id=":n3_18_0" index="0" speed="9.26" length="6.96" shape="39.60,48.40 44.85,49.15 46.27,50.00"/>
    </edge>
    <edge id=":n3_19" function="internal">
        <lane id=":n3_19_0" index="0" speed="3.65" length="2.34" shape="39.60,48.40 40.80,49.20 41.20,50.00"/>
    </edge>
    <edge id=":n3_26" function="internal">
        <lane id=":n3_26_0" index="0" speed="9.26" length="12.40" shape="46.27,50.00 48.60,51.40 50.85,55.15 51.60,60.40"/>
    </edge>
    <edge id=":n3_27" function="internal">
        <lane id=":n3_27_0" index="0" speed="3.65" length="2.34" shape="41.20,50.00 40.80,50.80 39.60,51.60"/>
    </edge>
    <edge id=":n4_0" function="internal">
        <lane id=":n4_0_0" index="0" speed="13.90" length="20.80" shape="-4.80,60.40 -4.80,39.60"/>
        <lane id=":n4_0_1" index="1" speed="13.90" length="20.80" shape="-1.60,60.40 -1.60,39.60"/>
    </edge>
    <edge id=":n4_2" function="internal">
        <lane id=":n4_2_0" index="0" speed="9.26" length="6.96" shape="-1.60,60.40 -0.85,55.15 0.00,53.73"/>
    </edge>
    <edge id=":n4_3" function="internal">
        <lane id=":n4_3_0" index="0" speed="3.65" length="2.34" shape="-1.60,60.40 -0.80,59.20 0.00,58.80"/>
    </edge>
    <edge id=":n4_12" function="internal">
        <lane id=":n4_12_0" index="0" speed="9.26" length="12.40" shape="0.00,53.73 1.40,51.40 5.15,49.15 10.40,48.40"/>
    </edge>
    <edge id=":n4_13" function="internal">
        <lane id=":n4_13_0" index="0" speed="3.65" length="2.34" shape="0.00,58.80 0.80,59.20 1.60,60.40"/>
    </edge>
    <edge id=":n4_4" function="internal">
        <lane id=":n4_4_0" index="0" speed="6.51" length="9.03" shape="10.40,54.80 7.95,55.15 6.20,56.20 5.15,57.95 4.80,60.40"/>
    </edge>
    <edge id=":n4_5" function="internal">
        <lane id=":n4_5_0" index="0" speed="8.00" length="14.19" shape="10.40,51.60 6.55,52.15 3.80,53.80 2.15,56.55 1.60,60.40"/>
    </edge>
    <edge id=":n4_6" function="internal">
        <lane id=":n4_6_0" index="0" speed="9.26" length="19.35" shape="10.40,51.60 5.15,50.85 1.40,48.60 -0.85,44.85 -1.60,39.60"/>
    </edge>
    <edge id=":n4_7" function="internal">
        <lane id=":n4_7_0" index="0" speed="3.65" length="2.34" shape="10.40,51.60 9.20,50.80 8.80,50.00"/>
    </edge>
    <edge id=":n4_14" function="internal">
        <lane id=":n4_14_0" index="0" speed="3.65" length="2.34" shape="8.80,50.00 9.20,49.20 10.40,48.40"/>
    </edge>
    <edge id=":n4_8" function="internal">
        <lane id=":n4_8_0" index="0" speed="6.51" length="9.03" shape="4.80,39.60 5.15,42.05 6.20,43.80 7.95,44.85 10.40,45.20"/>
    </edge>
    <edge id=":n4_9" function="internal">
        <lane id=":n4_9_0" index="0" speed="13.90" length="20.80" shape="4.80,39.60 4.80,60.40"/>
        <lane id=":n4_9_1" index="1" speed="13.90" length="20.80" shape="1.60,39.60 1.60,60.40"/>
    </edge>
    <edge id=":n4_11" function="internal">
        <lane id=":n4_11_0" index="0" speed="3.65" length="2.34" shape="1.60,39.60 0.80,40.80 0.00,41.20"/>
    </edge>
    <edge id=":n4_15" function="internal">
        <lane id=":n4_15_0" index="0" speed="3.65" length="2.34" shape="0.00,41.20 -0.80,40.80 -1.60,39.60"/>
    </edge>
    <edge id=":n5_0" function="internal">
        <lane id=":n5_0_0" index="0" speed="6.51" length="9.03" shape="95.20,10.40 94.85,7.95 93.80,6.20 92.05,5.15 89.60,4.80"/>
    </edge>
    <edge id=":n5_1" function="internal">
        <lane id=":n5_1_0" index="0" speed="8.00" length="14.19" shape="98.40,10.40 97.85,6.55 96.20,3.80 93.45,2.15 89.60,1.60"/>
    </edge>
    <edge id=":n5_2" function="internal">
        <lane id=":n5_2_0" index="0" speed="9.26" length="19.35" shape="98.40,10.40 99.15,5.15 101.40,1.40 105.15,-0.85 110.40,-1.60"/>
    </edge>
    <edge id=":n5_3" function="internal">
        <lane id=":n5_3_0" index="0" speed="3.65" length="2.34" shape="98.40,10.40 99.20,9.20 100.00,8.80"/>
    </edge>
    <edge id=":n5_12" function="internal">
        <lane id=":n5_12_0" index="0" speed="3.65" length="2.34" shape="100.00,8.80 100.80,9.20 101.60,10.40"/>
    </edge>
    <edge id=":n5_4" function="internal">
        <lane id=":n5_4_0" index="0" speed="6.51" length="9.03" shape="110.40,4.80 107.95,5.15 106.20,6.20 105.15,7.95 104.80,10.40"/>
    </edge>
    <edge id=":n5_5" function="internal">
        <lane id=":n5_5_0" index="0" speed="13.90" length="20.80" shape="110.40,4.80 89.60,4.80"/>
        <lane id=":n5_5_1" index="1" speed="13.90" length="20.80" shape="110.40,1.60 89.60,1.60"/>
    </edge>
    <edge id=":n5_7" function="internal">
        <lane id=":n5_7_0" index="0" speed="3.65" length="2.34" shape="110.40,1.60 109.20,0.80 108.80,0.00"/>
    </edge>
    <edge id=":n5_13" function="internal">
        <lane id=":n5_13_0" index="0" speed="3.65" length="2.34" shape="108.80,0.00 109.20,-0.80 110.40,-1.60"/>
    </edge>
    <edge id=":n5_8" function="internal">
        <lane id=":n5_8_0" index="0" speed="13.90" length="20.80" shape="89.60,-4.80 110.40,-4.80"/>
        <lane id=":n5_8_1" index="1" speed="13.90" length="20.80" shape="89.60,-1.60 110.40,-1.60"/>
    </edge>
    <edge id=":n5_10" function="internal">
        <lane id=":n5_10_0" index="0" speed="9.26" length="6.96" shape="89.60,-1.60 94.85,-0.85 96.27,0.00"/>
    </edge>
    <edge id=":n5_11" function="internal">
        <lane id=":n5_11_0" index="0" speed="3.65" length="2.34" shape="89.60,-1.60 90.80,-0.80 91.20,0.00"/>
    </edge>
    <edge id=":n5_14" function="internal">
        <lane id=":n5_14_0" index="0" speed="9.26" length="12.40" shape="96.27,0.00 98.60,1.40 100.85,5.15 101.60,10.40"/>
    </edge>
    <edge id=":n5_15" function="internal">
        <lane id=":n5_15_0" index="0" speed="3.65" length="2.34" shape="91.20,0.00 90.80,0.80 89.60,1.60"/>
    </edge>
    <edge id=":n6_0" function="internal">
        <lane id=":n6_0_0" index="0" speed="6.51" length="9.03" shape="95.20,60.40 94.85,57.95 93.80,56.20 92.05,55.15 89.60,54.80"/>
    </edge>
    <edge id=":n6_1" function="internal">
        <lane id=":n6_1_0" index="0" speed="13.90" length="20.80" shape="95.20,60.40 95.20,39.60"/>
        <lane id=":n6_1_1" index="1" speed="13.90" length="20.80" shape="98.40,60.40 98.40,39.60"/>
    </edge>
    <edge id=":n6_3" function="internal">
        <lane id=":n6_3_0" index="0" speed="9.26" length="6.96" shape="98.40,60.40 99.15,55.15 100.00,53.73"/>
    </edge>
    <edge id=":n6_4" function="internal">
        <lane id=":n6_4_0" index="0" speed="3.65" length="2.34" shape="98.40,60.40 99.20,59.20 100.00,58.80"/>
    </edge>
    <edge id=":n6_20" function="internal">
        <lane id=":n6_20_0" index="0" speed="9.26" length="12.40" shape="100.00,53.73 101.40,51.40 105.15,49.15 110.40,48.40"/>
    </edge>
    <edge id=":n6_21" function="internal">
        <lane id=":n6_21_0" index="0" speed="3.65" length="2.34" shape="100.00,58.80 100.80,59.20 101.60,60.40"/>
    </edge>
    <edge id=":n6_5" function="internal">
        <lane id=":n6_5_0" index="0" speed="6.51" length="9.03" shape="110.40,54.80 107.95,55.15 106.20,56.20 105.15,57.95 104.80,60.40"/>
    </edge>
    <edge id=":n6_6" function="internal">
        <lane id=":n6_6_0" index="0" speed="13.90" length="20.80" shape="110.40,54.80 89.60,54.80"/>
        <lane id=":n6_6_1" index="1" speed="13.90" length="20.80" shape="110.40,51.60 89.60,51.60"/>
    </edge>
    <edge id=":n6_8" function="internal">
        <lane id=":n6_8_0" index="0" speed="9.26" length="6.96" shape="110.40,51.60 105.15,50.85 103.73,50.00"/>
    </edge>
    <edge id=":n6_9" function="internal">
        <lane id=":n6_9_0" index="0" speed="3.65" length="2.34" shape="110.40,51.60 109.20,50.80 108.80,50.00"/>
    </edge>
    <edge id=":n6_22" function="internal">
        <lane id=":n6_22_0" index="0" speed="9.26" length="12.40" shape="103.73,50.00 101.40,48.60 99.15,44.85 98.40,39.60"/>
    </edge>
    <edge id=":n6_23" function="internal">
        <lane id=":n6_23_0" index="0" speed="3.65" length="2.34" shape="108.80,50.00 109.20,49.20 110.40,48.40"/>
    </edge>
    <edge id=":n6_10" function="internal">
        <lane id=":n6_10_0" index="0" speed="6.51" length="9.03" shape="104.80,39.60 105.15,42.05 106.20,43.80 107.95,44.85 110.40,45.20"/>
    </edge>