<?xml version="1.0" ?>
<edges xmlns:xsi="http://www.w3.org/2001/XMLSchema-instance" xsi:noNamespaceSchemaLocation="http://sumo.dlr.de/xsd/edges_file.xsd">
	<edge id="n1ton4" from="n1" to="n4" numLanes="1" speed="11.385046126034235" priority="0" type="normal_road"/>
	<edge id="n4ton1" from="n4" to="n1" numLanes="1" speed="11.385046126034235" priority="0" type="normal_road"/>
	<edge id="n1ton2" from="n1" to="n2" numLanes="1" speed="11.385046126034235" priority="0" type="normal_road"/>
	<edge id="n2ton1" from="n2" to="n1" numLanes="1" speed="11.385046126034235" priority="0" type="normal_road"/>
	<edge id="n2ton3" from="n2" to="n3" numLanes="1" speed="11.385046126034235" priority="0" type="normal_road"/>
	<edge id="n3ton2" from="n3" to="n2" numLanes="1" speed="11.385046126034235" priority="0" type="normal_road"/>
	<edge id="n3ton4" from="n3" to="n4" numLanes="1" speed="11.385046126034235" priority="0" type="normal_road"/>
	<edge id="n4ton3" from="n4" to="n3" numLanes="1" speed="11.385046126034235" priority="0" type="normal_road"/>
	<edge id="n4ton9" from="n4" to="n9" numLanes="1" speed="11.385046126034235" priority="0" type="normal_road"/>
	<edge id="n9ton4" from="n9" to="n4" numLanes="1" speed="11.385046126034235" priority="0" type="normal_road"/>
	<edge id="n3ton8" from="n3" to="n8" numLanes="1" speed="11.385046126034235" priority="0" type="normal_road"/>
	<edge id="n8ton3" from="n8" to="n3" numLanes="1" speed="11.385046126034235" priority="0" type="normal_road"/>
	<edge id="n3ton6" from="n3" to="n6" numLanes="1" speed="11.385046126034235" priority="0" type="normal_road"/>
	<edge id="n6ton3" from="n6" to="n3" numLanes="1" speed="11.385046126034235" priority="0" type="normal_road"/>
	<edge id="n2ton5" from="n2" to="n5" numLanes="1" speed="11.385046126034235" priority="0" type="normal_road"/>
	<edge id="n5ton2" from="n5" to="n2" numLanes="1" speed="11.385046126034235" priority="0" type="normal_road"/>
	<edge id="n5ton6" from="n5" to="n6" numLanes="1" speed="11.385046126034235" priority="0" type="normal_road"/>
	<edge id="n6ton5" from="n6" to="n5" numLanes="1" speed="11.385046126034235" priority="0" type="normal_road"/>
	<edge id="n6ton7" from="n6" to="n7" numLanes="1" speed="11.385046126034235" priority="0" type="normal_road"/>
	<edge id="n7ton6" from="n7" to="n6" numLanes="1" speed="11.385046126034235" priority="0" type="normal_road"/>
	<edge id="n7ton8" from="n7" to="n8" numLanes="1" speed="11.385046126034235" priority="0" type="normal_road"/>
	<edge id="n8ton7" from="n8" to="n7" numLanes="1" speed="11.385046126034235" priority="0" type="normal_road"/>
	<edge id="n8ton9" from="n8" to="n9" numLanes="1" speed="11.385046126034235" priority="0" type="normal_road"/>
	<edge id="n9ton8" from="n9" to="n8" numLanes="1" speed="11.385046126034235" priority="0" type="normal_road"/>
	<edge id="n1too1" from="n1" to="o1" numLanes="1" speed="11.385046126034235" priority="0" type="normal_road"/>
	<edge id="o1ton1" from="o1" to="n1" numLanes="1" speed="11.385046126034235" priority="0" type="normal_road"/>
	<edge id="n2too2" from="n2" to="o2" numLanes="1" speed="11.385046126034235" priority="0" type="normal_road"/>
	<edge id="o2ton2" from="o2" to="n2" numLanes="1" speed="11.385046126034235" priority="0" type="normal_road"/>
	<edge id="n5too3" from="n5" to="o3" numLanes="1" speed="11.385046126034235" priority="0" type="normal_road"/>
	<edge id="o3ton5" from="o3" to="n5" numLanes="1" speed="11.385046126034235" priority="0" type="normal_road"/>
	<edge id="n5too4" from="n5" to="o4" numLanes="1" speed="11.385046126034235" priority="0" type="normal_road"/>
	<edge id="o4ton5" from="o4" to="n5" numLanes="1" speed="11.385046126034235" priority="0" type="normal_road"/>
	<edge id="n6too5" from="n6" to="o5" numLanes="1" speed="11.385046126034235" priority="0" type="normal_road"/>
	<edge id="o5ton6" from="o5" to="n6" numLanes="1" speed="11.385046126034235" priority="0" type="normal_road"/>
	<edge id="n7too6" from="n7" to="o6" numLanes="1" speed="11.385046126034235" priority="0" type="normal_road"/>
	<edge id="o6ton7" from="o6" to="n7" numLanes="1" speed="11.385046126034235" priority="0" type="normal_road"/>
	<edge id="n7too7" from="n7" to="o7" numLanes="1" speed="11.385046126034235" priority="0" type="normal_road"/>
	<edge id="o7ton7" from="o7" to="n7" numLanes="1" speed="11.385046126034235" priority="0" type="normal_road"/>
	<edge id="n8too8" from="n8" to="o8" numLanes="1" speed="11.385046126034235" priority="0" type="normal_road"/>
	<edge id="o8ton8" from="o8" to="n8" numLanes="1" speed="11.385046126034235" priority="0" type="normal_road"/>
	<edge id="n9too9" from="n9" to="o9" numLanes="1" speed="11.385046126034235" priority="0" type="normal_road"/>
	<edge id="o9ton9" from="o9" to="n9" numLanes="1" speed="11.385046126034235" priority="0" type="normal_road"/>
	<edge id="n9too10" from="n9" to="o10" numLanes="1" speed="11.385046126034235" priority="0" type="normal_road"/>
	<edge id="o10ton9" from="o10" to="n9" numLanes="1" speed="11.385046126034235" priority="0" type="normal_road"/>
	<edge id="n4too11" from="n4" to="o11" numLanes="1" speed="11.385046126034235" priority="0" type="normal_road"/>
	<edge id="o11ton4" from="o11" to="n4" numLanes="1" speed="11.385046126034235" priority="0" type="normal_road"/>
	<edge id="n1too12" from="n1" to="o12" numLanes="1" speed="11.385046126034235" priority="0" type="normal_road"/>
	<edge id="o12ton1" from="o12" to="n1" numLanes="1" speed="11.385046126034235" priority="0" type="normal_road"/>
</edges>
