<?xml version="1.0" ?>
<edges xmlns:xsi="http://www.w3.org/2001/XMLSchema-instance" xsi:noNamespaceSchemaLocation="http://sumo.dlr.de/xsd/edges_file.xsd">
	<edge id="n1ton4" from="n1" to="n4" numLanes="1" speed="13.9" priority="0" type="normal_road"/>
	<edge id="n4ton1" from="n4" to="n1" numLanes="1" speed="13.9" priority="0" type="normal_road"/>
	<edge id="n1ton2" from="n1" to="n2" numLanes="1" speed="13.9" priority="0" type="normal_road"/>
	<edge id="n2ton1" from="n2" to="n1" numLanes="1" speed="13.9" priority="0" type="normal_road"/>
	<edge id="n2ton3" from="n2" to="n3" numLanes="1" speed="13.9" priority="0" type="normal_road"/>
	<edge id="n3ton2" from="n3" to="n2" numLanes="1" speed="13.9" priority="0" type="normal_road"/>
	<edge id="n3ton4" from="n3" to="n4" numLanes="1" speed="13.9" priority="0" type="normal_road"/>
	<edge id="n4ton3" from="n4" to="n3" numLanes="1" speed="13.9" priority="0" type="normal_road"/>
	<edge id="n4ton9" from="n4" to="n9" numLanes="1" speed="13.9" priority="0" type="normal_road"/>
	<edge id="n9ton4" from="n9" to="n4" numLanes="1" speed="13.9" priority="0" type="normal_road"/>
	<edge id="n3ton8" from="n3" to="n8" numLanes="1" speed="13.9" priority="0" type="normal_road"/>
	<edge id="n8ton3" from="n8" to="n3" numLanes="1" speed="13.9" priority="0" type="normal_road"/>
	<edge id="n3ton6" from="n3" to="n6" numLanes="1" speed="13.9" priority="0" type="normal_road"/>
	<edge id="n6ton3" from="n6" to="n3" numLanes="1" speed="13.9" priority="0" type="normal_road"/>
	<edge id="n2ton5" from="n2" to="n5" numLanes="1" speed="13.9" priority="0" type="normal_road"/>
	<edge id="n5ton2" from="n5" to="n2" numLanes="1" speed="13.9" priority="0" type="normal_road"/>
	<edge id="n5ton6" from="n5" to="n6" numLanes="1" speed="13.9" priority="0" type="normal_road"/>
	<edge id="n6ton5" from="n6" to="n5" numLanes="1" speed="13.9" priority="0" type="normal_road"/>
	<edge id="n6ton7" from="n6" to="n7" numLanes="1" speed="13.9" priority="0" type="normal_road"/>
	<edge id="n7ton6" from="n7" to="n6" numLanes="1" speed="13.9" priority="0" type="normal_road"/>
	<edge id="n7ton8" from="n7" to="n8" numLanes="1" speed="13.9" priority="0" type="normal_road"/>
	<edge id="n8ton7" from="n8" to="n7" numLanes="1" speed="13.9" priority="0" type="normal_road"/>
	<edge id="n8ton9" from="n8" to="n9" numLanes="1" speed="13.9" priority="0" type="normal_road"/>
	<edge id="n9ton8" from="n9" to="n8" numLanes="1" speed="13.9" priority="0" type="normal_road"/>
	<edge id="n9ton16" from="n9" to="n16" numLanes="1" speed="13.9" priority="0" type="normal_road"/>
	<edge id="n16ton9" from="n16" to="n9" numLanes="1" speed="13.9" priority="0" type="normal_road"/>
	<edge id="n8ton15" from="n8" to="n15" numLanes="1" speed="13.9" priority="0" type="normal_road"/>
	<edge id="n15ton8" from="n15" to="n8" numLanes="1" speed="13.9" priority="0" type="normal_road"/>
	<edge id="n7ton14" from="n7" to="n14" numLanes="1" speed="13.9" priority="0" type="normal_road"/>
	<edge id="n14ton7" from="n14" to="n7" numLanes="1" speed="13.9" priority="0" type="normal_road"/>
	<edge id="n7ton12" from="n7" to="n12" numLanes="1" speed="13.9" priority="0" type="normal_road"/>
	<edge id="n12ton7" from="n12" to="n7" numLanes="1" speed="13.9" priority="0" type="normal_road"/>
	<edge id="n6ton11" from="n6" to="n11" numLanes="1" speed="13.9" priority="0" type="normal_road"/>
	<edge id="n11ton6" from="n11" to="n6" numLanes="1" speed="13.9" priority="0" type="normal_road"/>
	<edge id="n5ton10" from="n5" to="n10" numLanes="1" speed="13.9" priority="0" type="normal_road"/>
	<edge id="n10ton5" from="n10" to="n5" numLanes="1" speed="13.9" priority="0" type="normal_road"/>
	<edge id="n10ton11" from="n10" to="n11" numLanes="1" speed="13.9" priority="0" type="normal_road"/>
	<edge id="n11ton10" from="n11" to="n10" numLanes="1" speed="13.9" priority="0" type="normal_road"/>
	<edge id="n11ton12" from="n11" to="n12" numLanes="1" speed="13.9" priority="0" type="normal_road"/>
	<edge id="n12ton11" from="n12" to="n11" numLanes="1" speed="13.9" priority="0" type="normal_road"/>
	<edge id="n12ton13" from="n12" to="n13" numLanes="1" speed="13.9" priority="0" type="normal_road"/>
	<edge id="n13ton12" from="n13" to="n12" numLanes="1" speed="13.9" priority="0" type="normal_road"/>
	<edge id="n13ton14" from="n13" to="n14" numLanes="1" speed="13.9" priority="0" type="normal_road"/>
	<edge id="n14ton13" from="n14" to="n13" numLanes="1" speed="13.9" priority="0" type="normal_road"/>
	<edge id="n14ton15" from="n14" to="n15" numLanes="1" speed="13.9" priority="0" type="normal_road"/>
	<edge id="n15ton14" from="n15" to="n14" numLanes="1" speed="13.9" priority="0" type="normal_road"/>
	<edge id="n15ton16" from="n15" to="n16" numLanes="1" speed="13.9" priority="0" type="normal_road"/>
	<edge id="n16ton15" from="n16" to="n15" numLanes="1" speed="13.9" priority="0" type="normal_road"/>
	<edge id="n16ton25" from="n16" to="n25" numLanes="1" speed="13.9" priority="0" type="normal_road"/>
	<edge id="n25ton16" from="n25" to="n16" numLanes="1" speed="13.9" priority="0" type="normal_road"/>
	<edge id="n15ton24" from="n15" to="n24" numLanes="1" speed="13.9" priority="0" type="normal_road"/>
	<edge id="n24ton15" from="n24" to="n15" numLanes="1" speed="13.9" priority="0" type="normal_road"/>
	<edge id="n14ton23" from="n14" to="n23" numLanes="1" speed="13.9" priority="0" type="normal_road"/>
	<edge id="n23ton14" from="n23" to="n14" numLanes="1" speed="13.9" priority="0" type="normal_road"/>
	<edge id="n13ton22" from="n13" to="n22" numLanes="1" speed="13.9" priority="0" type="normal_road"/>
	<edge id="n22ton13" from="n22" to="n13" numLanes="1" speed="13.9" priority="0" type="normal_road"/>
	<edge id="n13ton20" from="n13" to="n20" numLanes="1" speed="13.9" priority="0" type="normal_road"/>
	<edge id="n20ton13" from="n20" to="n13" numLanes="1" speed="13.9" priority="0" type="normal_road"/>
	<edge id="n12ton19" from="n12" to="n19" numLanes="1" speed="13.9" priority="0" type="normal_road"/>
	<edge id="n19ton12" from="n19" to="n12" numLanes="1" speed="13.9" priority="0" type="normal_road"/>
	<edge id="n11ton18" from="n11" to="n18" numLanes="1" speed="13.9" priority="0" type="normal_road"/>
	<edge id="n18ton11" from="n18" to="n11" numLanes="1" speed="13.9" priority="0" type="normal_road"/>
	<edge id="n10ton17" from="n10" to="n17" numLanes="1" speed="13.9" priority="0" type="normal_road"/>
	<edge id="n17ton10" from="n17" to="n10" numLanes="1" speed="13.9" priority="0" type="normal_road"/>
	<edge id="n17ton18" from="n17" to="n18" numLanes="1" speed="13.9" priority="0" type="normal_road"/>
	<edge id="n18ton17" from="n18" to="n17" numLanes="1" speed="13.9" priority="0" type="normal_road"/>
	<edge id="n18ton19" from="n18" to="n19" numLanes="1" speed="13.9" priority="0" type="normal_road"/>
	<edge id="n19ton18" from="n19" to="n18" numLanes="1" speed="13.9" priority="0" type="normal_road"/>
	<edge id="n19ton20" from="n19" to="n20" numLanes="1" speed="13.9" priority="0" type="normal_road"/>
	<edge id="n20ton19" from="n20" to="n19" numLanes="1" speed="13.9" priority="0" type="normal_road"/>
	<edge id="n20ton21" from="n20" to="n21" numLanes="1" speed="13.9" priority="0" type="normal_road"/>
	<edge id="n21ton20" from="n21" to="n20" numLanes="1" speed="13.9" priority="0" type="normal_road"/>
	<edge id="n21ton22" from="n21" to="n22" numLanes="1" speed="13.9" priority="0" type="normal_road"/>
	<edge id="n22ton21" from="n22" to="n21" numLanes="1" speed="13.9" priority="0" type="normal_road"/>
	<edge id="n22ton23" from="n22" to="n23" numLanes="1" speed="13.9" priority="0" type="normal_road"/>
	<edge id="n23ton22" from="n23" to="n22" numLanes="1" speed="13.9" priority="0" type="normal_road"/>
	<edge id="n23ton24" from="n23" to="n24" numLanes="1" speed="13.9" priority="0" type="normal_road"/>
	<edge id="n24ton23" from="n24" to="n23" numLanes="1" speed="13.9" priority="0" type="normal_road"/>
	<edge id="n24ton25" from="n24" to="n25" numLanes="1" speed="13.9" priority="0" type="normal_road"/>
	<edge id="n25ton24" from="n25" to="n24" numLanes="1" speed="13.9" priority="0" type="normal_road"/>
	<edge id="n25ton36" from="n25" to="n36" numLanes="1" speed="13.9" priority="0" type="normal_road"/>
	<edge id="n36ton25" from="n36" to="n25" numLanes="1" speed="13.9" priority="0" type="normal_road"/>
	<edge id="n24ton35" from="n24" to="n35" numLanes="1" speed="13.9" priority="0" type="normal_road"/>
	<edge id="n35ton24" from="n35" to="n24" numLanes="1" speed="13.9" priority="0" type="normal_road"/>
	<edge id="n23ton34" from="n23" to="n34" numLanes="1" speed="13.9" priority="0" type="normal_road"/>
	<edge id="n34ton23" from="n34" to="n23" numLanes="1" speed="13.9" priority="0" type="normal_road"/>
	<edge id="n22ton33" from="n22" to="n33" numLanes="1" speed="13.9" priority="0" type="normal_road"/>
	<edge id="n33ton22" from="n33" to="n22" numLanes="1" speed="13.9" priority="0" type="normal_road"/>
	<edge id="n21ton32" from="n21" to="n32" numLanes="1" speed="13.9" priority="0" type="normal_road"/>
	<edge id="n32ton21" from="n32" to="n21" numLanes="1" speed="13.9" priority="0" type="normal_road"/>
	<edge id="n21ton30" from="n21" to="n30" numLanes="1" speed="13.9" priority="0" type="normal_road"/>
	<edge id="n30ton21" from="n30" to="n21" numLanes="1" speed="13.9" priority="0" type="normal_road"/>
	<edge id="n20ton29" from="n20" to="n29" numLanes="1" speed="13.9" priority="0" type="normal_road"/>
	<edge id="n29ton20" from="n29" to="n20" numLanes="1" speed="13.9" priority="0" type="normal_road"/>
	<edge id="n19ton28" from="n19" to="n28" numLanes="1" speed="13.9" priority="0" type="normal_road"/>
	<edge id="n28ton19" from="n28" to="n19" numLanes="1" speed="13.9" priority="0" type="normal_road"/>
	<edge id="n18ton27" from="n18" to="n27" numLanes="1" speed="13.9" priority="0" type="normal_road"/>
	<edge id="n27ton18" from="n27" to="n18" numLanes="1" speed="13.9" priority="0" type="normal_road"/>
	<edge id="n17ton26" from="n17" to="n26" numLanes="1" speed="13.9" priority="0" type="normal_road"/>
	<edge id="n26ton17" from="n26" to="n17" numLanes="1" speed="13.9" priority="0" type="normal_road"/>
	<edge id="n26ton27" from="n26" to="n27" numLanes="1" speed="13.9" priority="0" type="normal_road"/>
	<edge id="n27ton26" from="n27" to="n26" numLanes="1" speed="13.9" priority="0" type="normal_road"/>
	<edge id="n27ton28" from="n27" to="n28" numLanes="1" speed="13.9" priority="0" type="normal_road"/>
	<edge id="n28ton27" from="n28" to="n27" numLanes="1" speed="13.9" priority="0" type="normal_road"/>
	<edge id="n28ton29" from="n28" to="n29" numLanes="1" speed="13.9" priority="0" type="normal_road"/>
	<edge id="n29ton28" from="n29" to="n28" numLanes="1" speed="13.9" priority="0" type="normal_road"/>
	<edge id="n29ton30" from="n29" to="n30" numLanes="1" speed="13.9" priority="0" type="normal_road"/>
	<edge id="n30ton29" from="n30" to="n29" numLanes="1" speed="13.9" priority="0" type="normal_road"/>
	<edge id="n30ton31" from="n30" to="n31" numLanes="1" speed="13.9" priority="0" type="normal_road"/>
	<edge id="n31ton30" from="n31" to="n30" numLanes="1" speed="13.9" priority="0" type="normal_road"/>
	<edge id="n31ton32" from="n31" to="n32" numLanes="1" speed="13.9" priority="0" type="normal_road"/>
	<edge id="n32ton31" from="n32" to="n31" numLanes="1" speed="13.9" priority="0" type="normal_road"/>
	<edge id="n32ton33" from="n32" to="n33" numLanes="1" speed="13.9" priority="0" type="normal_road"/>
	<edge id="n33ton32" from="n33" to="n32" numLanes="1" speed="13.9" priority="0" type="normal_road"/>
	<edge id="n33ton34" from="n33" to="n34" numLanes="1" speed="13.9" priority="0" type="normal_road"/>
	<edge id="n34ton33" from="n34" to="n33" numLanes="1" speed="13.9" priority="0" type="normal_road"/>
	<edge id="n34ton35" from="n34" to="n35" numLanes="1" speed="13.9" priority="0" type="normal_road"/>
	<edge id="n35ton34" from="n35" to="n34" numLanes="1" speed="13.9" priority="0" type="normal_road"/>
	<edge id="n35ton36" from="n35" to="n36" numLanes="1" speed="13.9" priority="0" type="normal_road"/>
	<edge id="n36ton35" from="n36" to="n35" numLanes="1" speed="13.9" priority="0" type="normal_road"/>
	<edge id="n1too1" from="n1" to="o1" numLanes="1" speed="13.9" priority="0" type="normal_road"/>
	<edge id="o1ton1" from="o1" to="n1" numLanes="1" speed="13.9" priority="0" type="normal_road"/>
	<edge id="n2too2" from="n2" to="o2" numLanes="1" speed="13.9" priority="0" type="normal_road"/>
	<edge id="o2ton2" from="o2" to="n2" numLanes="1" speed="13.9" priority="0" type="normal_road"/>
	<edge id="n5too3" from="n5" to="o3" numLanes="1" speed="13.9" priority="0" type="normal_road"/>
	<edge id="o3ton5" from="o3" to="n5" numLanes="1" speed="13.9" priority="0" type="normal_road"/>
	<edge id="n10too4" from="n10" to="o4" numLanes="1" speed="13.9" priority="0" type="normal_road"/>
	<edge id="o4ton10" from="o4" to="n10" numLanes="1" speed="13.9" priority="0" type="normal_road"/>
	<edge id="n17too5" from="n17" to="o5" numLanes="1" speed="13.9" priority="0" type="normal_road"/>
	<edge id="o5ton17" from="o5" to="n17" numLanes="1" speed="13.9" priority="0" type="normal_road"/>
	<edge id="n26too6" from="n26" to="o6" numLanes="1" speed="13.9" priority="0" type="normal_road"/>
	<edge id="o6ton26" from="o6" to="n26" numLanes="1" speed="13.9" priority="0" type="normal_road"/>
	<edge id="n26too7" from="n26" to="o7" numLanes="1" speed="13.9" priority="0" type="normal_road"/>
	<edge id="o7ton26" from="o7" to="n26" numLanes="1" speed="13.9" priority="0" type="normal_road"/>
	<edge id="n27too8" from="n27" to="o8" numLanes="1" speed="13.9" priority="0" type="normal_road"/>
	<edge id="o8ton27" from="o8" to="n27" numLanes="1" speed="13.9" priority="0" type="normal_road"/>
	<edge id="n28too9" from="n28" to="o9" numLanes="1" speed="13.9" priority="0" type="normal_road"/>
	<edge id="o9ton28" from="o9" to="n28" numLanes="1" speed="13.9" priority="0" type="normal_road"/>
	<edge id="n29too10" from="n29" to="o10" numLanes="1" speed="13.9" priority="0" type="normal_road"/>
	<edge id="o10ton29" from="o10" to="n29" numLanes="1" speed="13.9" priority="0" type="normal_road"/>
	<edge id="n30too11" from="n30" to="o11" numLanes="1" speed="13.9" priority="0" type="normal_road"/>
	<edge id="o11ton30" from="o11" to="n30" numLanes="1" speed="13.9" priority="0" type="normal_road"/>
	<edge id="n31too12" from="n31" to="o12" numLanes="1" speed="13.9" priority="0" type="normal_road"/>
	<edge id="o12ton31" from="o12" to="n31" numLanes="1" speed="13.9" priority="0" type="normal_road"/>
	<edge id="n31too13" from="n31" to="o13" numLanes="1" speed="13.9" priority="0" type="normal_road"/>
	<edge id="o13ton31" from="o13" to="n31" numLanes="1" speed="13.9" priority="0" type="normal_road"/>
	<edge id="n32too14" from="n32" to="o14" numLanes="1" speed="13.9" priority="0" type="normal_road"/>
	<edge id="o14ton32" from="o14" to="n32" numLanes="1" speed="13.9" priority="0" type="normal_road"/>
	<edge id="n33too15" from="n33" to="o15" numLanes="1" speed="13.9" priority="0" type="normal_road"/>
	<edge id="o15ton33" from="o15" to="n33" numLanes="1" speed="13.9" priority="0" type="normal_road"/>
	<edge id="n34too16" from="n34" to="o16" numLanes="1" speed="13.9" priority="0" type="normal_road"/>
	<edge id="o16ton34" from="o16" to="n34" numLanes="1" speed="13.9" priority="0" type="normal_road"/>
	<edge id="n35too17" from="n35" to="o17" numLanes="1" speed="13.9" priority="0" type="normal_road"/>
	<edge id="o17ton35" from="o17" to="n35" numLanes="1" speed="13.9" priority="0" type="normal_road"/>
	<edge id="n36too18" from="n36" to="o18" numLanes="1" speed="13.9" priority="0" type="normal_road"/>
	<edge id="o18ton36" from="o18" to="n36" numLanes="1" speed="13.9" priority="0" type="normal_road"/>
	<edge id="n36too19" from="n36" to="o19" numLanes="1" speed="13.9" priority="0" type="normal_road"/>
	<edge id="o19ton36" from="o19" to="n36" numLanes="1" speed="13.9" priority="0" type="normal_road"/>
	<edge id="n25too20" from="n25" to="o20" numLanes="1" speed="13.9" priority="0" type="normal_road"/>
	<edge id="o20ton25" from="o20" to="n25" numLanes="1" speed="13.9" priority="0" type="normal_road"/>
	<edge id="n16too21" from="n16" to="o21" numLanes="1" speed="13.9" priority="0" type="normal_road"/>
	<edge id="o21ton16" from="o21" to="n16" numLanes="1" speed="13.9" priority="0" type="normal_road"/>
	<edge id="n9too22" from="n9" to="o22" numLanes="1" speed="13.9" priority="0" type="normal_road"/>
	<edge id="o22ton9" from="o22" to="n9" numLanes="1" speed="13.9" priority="0" type="normal_road"/>
	<edge id="n4too23" from="n4" to="o23" numLanes="1" speed="13.9" priority="0" type="normal_road"/>
	<edge id="o23ton4" from="o23" to="n4" numLanes="1" speed="13.9" priority="0" type="normal_road"/>
	<edge id="n1too24" from="n1" to="o24" numLanes="1" speed="13.9" priority="0" type="normal_road"/>
	<edge id="o24ton1" from="o24" to="n1" numLanes="1" speed="13.9" priority="0" type="normal_road"/>
</edges>
