<?xml version="1.0" ?>
<edges xmlns:xsi="http://www.w3.org/2001/XMLSchema-instance" xsi:noNamespaceSchemaLocation="http://sumo.dlr.de/xsd/edges_file.xsd">
	<edge id="n1ton4" from="n1" to="n4" numLanes="3" speed="69" priority="0" type="normal_road"/>
	<edge id="n4ton1" from="n4" to="n1" numLanes="3" speed="69" priority="0" type="normal_road"/>
	<edge id="n1ton2" from="n1" to="n2" numLanes="3" speed="69" priority="0" type="normal_road"/>
	<edge id="n2ton1" from="n2" to="n1" numLanes="3" speed="69" priority="0" type="normal_road"/>
	<edge id="n2ton3" from="n2" to="n3" numLanes="3" speed="69" priority="0" type="normal_road"/>
	<edge id="n3ton2" from="n3" to="n2" numLanes="3" speed="69" priority="0" type="normal_road"/>
	<edge id="n3ton4" from="n3" to="n4" numLanes="3" speed="69" priority="0" type="normal_road"/>
	<edge id="n4ton3" from="n4" to="n3" numLanes="3" speed="69" priority="0" type="normal_road"/>
	<edge id="n4ton9" from="n4" to="n9" numLanes="3" speed="69" priority="0" type="normal_road"/>
	<edge id="n9ton4" from="n9" to="n4" numLanes="3" speed="69" priority="0" type="normal_road"/>
	<edge id="n3ton8" from="n3" to="n8" numLanes="3" speed="69" priority="0" type="normal_road"/>
	<edge id="n8ton3" from="n8" to="n3" numLanes="3" speed="69" priority="0" type="normal_road"/>
	<edge id="n3ton6" from="n3" to="n6" numLanes="3" speed="69" priority="0" type="normal_road"/>
	<edge id="n6ton3" from="n6" to="n3" numLanes="3" speed="69" priority="0" type="normal_road"/>
	<edge id="n2ton5" from="n2" to="n5" numLanes="3" speed="69" priority="0" type="normal_road"/>
	<edge id="n5ton2" from="n5" to="n2" numLanes="3" speed="69" priority="0" type="normal_road"/>
	<edge id="n5ton6" from="n5" to="n6" numLanes="3" speed="69" priority="0" type="normal_road"/>
	<edge id="n6ton5" from="n6" to="n5" numLanes="3" speed="69" priority="0" type="normal_road"/>
	<edge id="n6ton7" from="n6" to="n7" numLanes="3" speed="69" priority="0" type="normal_road"/>
	<edge id="n7ton6" from="n7" to="n6" numLanes="3" speed="69" priority="0" type="normal_road"/>
	<edge id="n7ton8" from="n7" to="n8" numLanes="3" speed="69" priority="0" type="normal_road"/>
	<edge id="n8ton7" from="n8" to="n7" numLanes="3" speed="69" priority="0" type="normal_road"/>
	<edge id="n8ton9" from="n8" to="n9" numLanes="3" speed="69" priority="0" type="normal_road"/>
	<edge id="n9ton8" from="n9" to="n8" numLanes="3" speed="69" priority="0" type="normal_road"/>
	<edge id="n9ton16" from="n9" to="n16" numLanes="3" speed="69" priority="0" type="normal_road"/>
	<edge id="n16ton9" from="n16" to="n9" numLanes="3" speed="69" priority="0" type="normal_road"/>
	<edge id="n8ton15" from="n8" to="n15" numLanes="3" speed="69" priority="0" type="normal_road"/>
	<edge id="n15ton8" from="n15" to="n8" numLanes="3" speed="69" priority="0" type="normal_road"/>
	<edge id="n7ton14" from="n7" to="n14" numLanes="3" speed="69" priority="0" type="normal_road"/>
	<edge id="n14ton7" from="n14" to="n7" numLanes="3" speed="69" priority="0" type="normal_road"/>
	<edge id="n7ton12" from="n7" to="n12" numLanes="3" speed="69" priority="0" type="normal_road"/>
	<edge id="n12ton7" from="n12" to="n7" numLanes="3" speed="69" priority="0" type="normal_road"/>
	<edge id="n6ton11" from="n6" to="n11" numLanes="3" speed="69" priority="0" type="normal_road"/>
	<edge id="n11ton6" from="n11" to="n6" numLanes="3" speed="69" priority="0" type="normal_road"/>
	<edge id="n5ton10" from="n5" to="n10" numLanes="3" speed="69" priority="0" type="normal_road"/>
	<edge id="n10ton5" from="n10" to="n5" numLanes="3" speed="69" priority="0" type="normal_road"/>
	<edge id="n10ton11" from="n10" to="n11" numLanes="3" speed="69" priority="0" type="normal_road"/>
	<edge id="n11ton10" from="n11" to="n10" numLanes="3" speed="69" priority="0" type="normal_road"/>
	<edge id="n11ton12" from="n11" to="n12" numLanes="3" speed="69" priority="0" type="normal_road"/>
	<edge id="n12ton11" from="n12" to="n11" numLanes="3" speed="69" priority="0" type="normal_road"/>
	<edge id="n12ton13" from="n12" to="n13" numLanes="3" speed="69" priority="0" type="normal_road"/>
	<edge id="n13ton12" from="n13" to="n12" numLanes="3" speed="69" priority="0" type="normal_road"/>
	<edge id="n13ton14" from="n13" to="n14" numLanes="3" speed="69" priority="0" type="normal_road"/>
	<edge id="n14ton13" from="n14" to="n13" numLanes="3" speed="69" priority="0" type="normal_road"/>
	<edge id="n14ton15" from="n14" to="n15" numLanes="3" speed="69" priority="0" type="normal_road"/>
	<edge id="n15ton14" from="n15" to="n14" numLanes="3" speed="69" priority="0" type="normal_road"/>
	<edge id="n15ton16" from="n15" to="n16" numLanes="3" speed="69" priority="0" type="normal_road"/>
	<edge id="n16ton15" from="n16" to="n15" numLanes="3" speed="69" priority="0" type="normal_road"/>
	<edge id="n1too1" from="n1" to="o1" numLanes="3" speed="69" priority="0" type="normal_road"/>
	<edge id="o1ton1" from="o1" to="n1" numLanes="3" speed="69" priority="0" type="normal_road"/>
	<edge id="n2too2" from="n2" to="o2" numLanes="3" speed="69" priority="0" type="normal_road"/>
	<edge id="o2ton2" from="o2" to="n2" numLanes="3" speed="69" priority="0" type="normal_road"/>
	<edge id="n5too3" from="n5" to="o3" numLanes="3" speed="69" priority="0" type="normal_road"/>
	<edge id="o3ton5" from="o3" to="n5" numLanes="3" speed="69" priority="0" type="normal_road"/>
	<edge id="n10too4" from="n10" to="o4" numLanes="3" speed="69" priority="0" type="normal_road"/>
	<edge id="o4ton10" from="o4" to="n10" numLanes="3" speed="69" priority="0" type="normal_road"/>
	<edge id="n10too5" from="n10" to="o5" numLanes="3" speed="69" priority="0" type="normal_road"/>
	<edge id="o5ton10" from="o5" to="n10" numLanes="3" speed="69" priority="0" type="normal_road"/>
	<edge id="n11too6" from="n11" to="o6" numLanes="3" speed="69" priority="0" type="normal_road"/>
	<edge id="o6ton11" from="o6" to="n11" numLanes="3" speed="69" priority="0" type="normal_road"/>
	<edge id="n12too7" from="n12" to="o7" numLanes="3" speed="69" priority="0" type="normal_road"/>
	<edge id="o7ton12" from="o7" to="n12" numLanes="3" speed="69" priority="0" type="normal_road"/>
	<edge id="n13too8" from="n13" to="o8" numLanes="3" speed="69" priority="0" type="normal_road"/>
	<edge id="o8ton13" from="o8" to="n13" numLanes="3" speed="69" priority="0" type="normal_road"/>
	<edge id="n13too9" from="n13" to="o9" numLanes="3" speed="69" priority="0" type="normal_road"/>
	<edge id="o9ton13" from="o9" to="n13" numLanes="3" speed="69" priority="0" type="normal_road"/>
	<edge id="n14too10" from="n14" to="o10" numLanes="3" speed="69" priority="0" type="normal_road"/>
	<edge id="o10ton14" from="o10" to="n14" numLanes="3" speed="69" priority="0" type="normal_road"/>
	<edge id="n15too11" from="n15" to="o11" numLanes="3" speed="69" priority="0" type="normal_road"/>
	<edge id="o11ton15" from="o11" to="n15" numLanes="3" speed="69" priority="0" type="normal_road"/>
	<edge id="n16too12" from="n16" to="o12" numLanes="3" speed="69" priority="0" type="normal_road"/>
	<edge id="o12ton16" from="o12" to="n16" numLanes="3" speed="69" priority="0" type="normal_road"/>
	<edge id="n16too13" from="n16" to="o13" numLanes="3" speed="69" priority="0" type="normal_road"/>
	<edge id="o13ton16" from="o13" to="n16" numLanes="3" speed="69" priority="0" type="normal_road"/>
	<edge id="n9too14" from="n9" to="o14" numLanes="3" speed="69" priority="0" type="normal_road"/>
	<edge id="o14ton9" from="o14" to="n9" numLanes="3" speed="69" priority="0" type="normal_road"/>
	<edge id="n4too15" from="n4" to="o15" numLanes="3" speed="69" priority="0" type="normal_road"/>
	<edge id="o15ton4" from="o15" to="n4" numLanes="3" speed="69" priority="0" type="normal_road"/>
	<edge id="n1too16" from="n1" to="o16" numLanes="3" speed="69" priority="0" type="normal_road"/>
	<edge id="o16ton1" from="o16" to="n1" numLanes="3" speed="69" priority="0" type="normal_road"/>
</edges>
