<?xml version="1.0" ?>
<nodes xmlns:xsi="http://www.w3.org/2001/XMLSchema-instance" xsi:noNamespaceSchemaLocation="http://sumo.dlr.de/xsd/nodes_file.xsd">
	<node id="n1" x="0" y="0" type="priority" tlType="actuated" tlLayout="opposites" keepClear="true"/>
	<node id="n2" x="50" y="0" type="priority" tlType="actuated" tlLayout="opposites" keepClear="true"/>
	<node id="n3" x="50" y="50" type="priority" tlType="actuated" tlLayout="opposites" keepClear="true"/>
	<node id="n4" x="0" y="50" type="priority" tlType="actuated" tlLayout="opposites" keepClear="true"/>
	<node id="n5" x="100" y="0" type="priority" tlType="actuated" tlLayout="opposites" keepClear="true"/>
	<node id="n6" x="100" y="50" type="priority" tlType="actuated" tlLayout="opposites" keepClear="true"/>
	<node id="n7" x="100" y="100" type="priority" tlType="actuated" tlLayout="opposites" keepClear="true"/>
	<node id="n8" x="50" y="100" type="priority" tlType="actuated" tlLayout="opposites" keepClear="true"/>
	<node id="n9" x="0" y="100" type="priority" tlType="actuated" tlLayout="opposites" keepClear="true"/>
	<node id="n10" x="150" y="0" type="priority" tlType="actuated" tlLayout="opposites" keepClear="true"/>
	<node id="n11" x="150" y="50" type="priority" tlType="actuated" tlLayout="opposites" keepClear="true"/>
	<node id="n12" x="150" y="100" type="priority" tlType="actuated" tlLayout="opposites" keepClear="true"/>
	<node id="n13" x="150" y="150" type="priority" tlType="actuated" tlLayout="opposites" keepClear="true"/>
	<node id="n14" x="100" y="150" type="priority" tlType="actuated" tlLayout="opposites" keepClear="true"/>
	<node id="n15" x="50" y="150" type="priority" tlType="actuated" tlLayout="opposites" keepClear="true"/>
	<node id="n16" x="0" y="150" type="priority" tlType="actuated" tlLayout="opposites" keepClear="true"/>
	<node id="o1" x="0" y="-50" type="priority"/>
	<node id="o2" x="50" y="-50" type="priority"/>
	<node id="o3" x="100" y="-50" type="priority"/>
	<node id="o4" x="150" y="-50" type="priority"/>
	<node id="o5" x="200" y="0" type="priority"/>
	<node id="o6" x="200" y="50" type="priority"/>
	<node id="o7" x="200" y="100" type="priority"/>
	<node id="o8" x="200" y="150" type="priority"/>
	<node id="o9" x="150" y="200" type="priority"/>
	<node id="o10" x="100" y="200" type="priority"/>
	<node id="o11" x="50" y="200" type="priority"/>
	<node id="o12" x="0" y="200" type="priority"/>
	<node id="o13" x="-50" y="150" type="priority"/>
	<node id="o14" x="-50" y="100" type="priority"/>
	<node id="o15" x="-50" y="50" type="priority"/>
	<node id="o16" x="-50" y="0" type="priority"/>
</nodes>
