<?xml version="1.0" ?>
<nodes xmlns:xsi="http://www.w3.org/2001/XMLSchema-instance" xsi:noNamespaceSchemaLocation="http://sumo.dlr.de/xsd/nodes_file.xsd">
	<node id="n1" x="0" y="0" type="priority" tlType="actuated" tlLayout="opposites" keepClear="true"/>
	<node id="n2" x="200" y="0" type="priority" tlType="actuated" tlLayout="opposites" keepClear="true"/>
	<node id="n3" x="200" y="200" type="priority" tlType="actuated" tlLayout="opposites" keepClear="true"/>
	<node id="n4" x="0" y="200" type="priority" tlType="actuated" tlLayout="opposites" keepClear="true"/>
	<node id="n5" x="400" y="0" type="priority" tlType="actuated" tlLayout="opposites" keepClear="true"/>
	<node id="n6" x="400" y="200" type="priority" tlType="actuated" tlLayout="opposites" keepClear="true"/>
	<node id="n7" x="400" y="400" type="priority" tlType="actuated" tlLayout="opposites" keepClear="true"/>
	<node id="n8" x="200" y="400" type="priority" tlType="actuated" tlLayout="opposites" keepClear="true"/>
	<node id="n9" x="0" y="400" type="priority" tlType="actuated" tlLayout="opposites" keepClear="true"/>
	<node id="o1" x="0" y="-200" type="priority"/>
	<node id="o2" x="200" y="-200" type="priority"/>
	<node id="o3" x="400" y="-200" type="priority"/>
	<node id="o4" x="600" y="0" type="priority"/>
	<node id="o5" x="600" y="200" type="priority"/>
	<node id="o6" x="600" y="400" type="priority"/>
	<node id="o7" x="400" y="600" type="priority"/>
	<node id="o8" x="200" y="600" type="priority"/>
	<node id="o9" x="0" y="600" type="priority"/>
	<node id="o10" x="-200" y="400" type="priority"/>
	<node id="o11" x="-200" y="200" type="priority"/>
	<node id="o12" x="-200" y="0" type="priority"/>
</nodes>
