<?xml version="1.0" encoding="UTF-8"?>

<!-- generated on Sun Dec 13 13:38:23 2020 by Eclipse SUMO duarouter Version 1.8.0
<configuration xmlns:xsi="http://www.w3.org/2001/XMLSchema-instance" xsi:noNamespaceSchemaLocation="http://sumo.dlr.de/xsd/duarouterConfiguration.xsd">

    <input>
        <net-file value="/Users/Matteo/2020-12-13-13-38-03/osm.net.xml"/>
        <route-files value="/Users/Matteo/2020-12-13-13-38-03/osm.passenger.trips.xml"/>
    </input>

    <output>
        <output-file value="/Users/Matteo/2020-12-13-13-38-03/osm.passenger.trips.xml.tmp"/>
        <write-trips value="true"/>
    </output>

    <time>
        <begin value="0"/>
        <end value="3600"/>
    </time>

    <report>
        <no-warnings value="true"/>
        <ignore-errors value="true"/>
        <no-step-log value="true"/>
    </report>

</configuration>
-->

<routes xmlns:xsi="http://www.w3.org/2001/XMLSchema-instance" xsi:noNamespaceSchemaLocation="http://sumo.dlr.de/xsd/routes_file.xsd">
    <vType id="veh_passenger" vClass="passenger"/>
    <trip id="veh0" type="veh_passenger" depart="0.00" departLane="best" from="3986838" to="-143755556#0"/>
    <trip id="veh1" type="veh_passenger" depart="1.93" departLane="best" from="-4008131#0" to="-3994572#0"/>
    <trip id="veh2" type="veh_passenger" depart="3.85" departLane="best" from="3994607#1" to="3987076#0"/>
    <trip id="veh3" type="veh_passenger" depart="5.78" departLane="best" from="4679011#0" to="-3128391#0"/>
    <trip id="veh4" type="veh_passenger" depart="7.71" departLane="best" from="108508527#6" to="-143760220#2"/>
    <trip id="veh5" type="veh_passenger" depart="9.64" departLane="best" from="-3994561#4" to="24746129"/>
    <trip id="veh6" type="veh_passenger" depart="11.56" departLane="best" from="-143755556#12" to="-3987074#6"/>
    <trip id="veh7" type="veh_passenger" depart="13.49" departLane="best" from="3986931#2" to="3384051#0"/>
    <trip id="veh8" type="veh_passenger" depart="15.42" departLane="best" from="-3994566#5" to="3875409#2"/>
    <trip id="veh9" type="veh_passenger" depart="17.34" departLane="best" from="4076093#0" to="-11099280#4"/>
    <trip id="veh10" type="veh_passenger" depart="19.27" departLane="best" from="4076027#3" to="3993065#2"/>
    <trip id="veh11" type="veh_passenger" depart="21.20" departLane="best" from="-45075887" to="-3986762#2"/>
    <trip id="veh12" type="veh_passenger" depart="23.12" departLane="best" from="54624698#3" to="-43868017"/>
    <trip id="veh13" type="veh_passenger" depart="25.05" departLane="best" from="4235426#1" to="3905471#0"/>
    <trip id="veh14" type="veh_passenger" depart="26.98" departLane="best" from="4076090" to="3994599#0"/>
    <trip id="veh15" type="veh_passenger" depart="28.91" departLane="best" from="3241002#1" to="70296974#0"/>
    <trip id="veh16" type="veh_passenger" depart="30.83" departLane="best" from="-54621757#4" to="362280437#0"/>
    <trip id="veh18" type="veh_passenger" depart="34.69" departLane="best" from="4275819" to="386808585#5"/>
    <trip id="veh19" type="veh_passenger" depart="36.61" departLane="best" from="3993089#2" to="-147495435#2"/>
    <trip id="veh20" type="veh_passenger" depart="38.54" departLane="best" from="-3994576#0" to="-4076093#1"/>
    <trip id="veh21" type="veh_passenger" depart="40.47" departLane="best" from="-31152413#1" to="-3994585#1"/>
    <trip id="veh22" type="veh_passenger" depart="42.40" departLane="best" from="-3384051#0" to="-4008135#3"/>
    <trip id="veh23" type="veh_passenger" depart="44.32" departLane="best" from="3986788#0" to="-5236364"/>
    <trip id="veh24" type="veh_passenger" depart="46.25" departLane="best" from="-53195538" to="-3993079#2"/>
    <trip id="veh25" type="veh_passenger" depart="48.18" departLane="best" from="-4008110#1" to="53239201#0"/>
    <trip id="veh26" type="veh_passenger" depart="50.10" departLane="best" from="3986900" to="3959569"/>
    <trip id="veh27" type="veh_passenger" depart="52.03" departLane="best" from="-3986931#3" to="3994587#0"/>
    <trip id="veh28" type="veh_passenger" depart="53.96" departLane="best" from="841372001#1" to="3986846#1"/>
    <trip id="veh29" type="veh_passenger" depart="55.88" departLane="best" from="36884541#4" to="3987159#2"/>
    <trip id="veh30" type="veh_passenger" depart="57.81" departLane="best" from="42287830#7" to="4008086#0"/>
    <trip id="veh31" type="veh_passenger" depart="59.74" departLane="best" from="-3994576#4" to="-143760231#0"/>
    <trip id="veh32" type="veh_passenger" depart="61.67" departLane="best" from="-4241930#15" to="-4008114#1"/>
    <trip id="veh33" type="veh_passenger" depart="63.59" departLane="best" from="-3993097#1" to="54327430"/>
    <trip id="veh34" type="veh_passenger" depart="65.52" departLane="best" from="44221475#0" to="-4241930#13"/>
    <trip id="veh35" type="veh_passenger" depart="67.45" departLane="best" from="3987016#1" to="-65696403#3"/>
    <trip id="veh36" type="veh_passenger" depart="69.37" departLane="best" from="52048371" to="143755562#0"/>
    <trip id="veh37" type="veh_passenger" depart="71.30" departLane="best" from="-4008106" to="-3994643#0"/>
    <trip id="veh38" type="veh_passenger" depart="73.23" departLane="best" from="37632868#0" to="-4008086#1"/>
    <trip id="veh39" type="veh_passenger" depart="75.16" departLane="best" from="3875326#5" to="50928338"/>
    <trip id="veh40" type="veh_passenger" depart="77.08" departLane="best" from="-819481581#1" to="-3994562"/>
    <trip id="veh41" type="veh_passenger" depart="79.01" departLane="best" from="884149320#0" to="251921812#3"/>
    <trip id="veh42" type="veh_passenger" depart="80.94" departLane="best" from="-3217814#2" to="-148215554#1"/>
    <trip id="veh43" type="veh_passenger" depart="82.86" departLane="best" from="-37849665#3" to="3986762#3"/>
    <trip id="veh44" type="veh_passenger" depart="84.79" departLane="best" from="4008131#1" to="108508527#7"/>
    <trip id="veh45" type="veh_passenger" depart="86.72" departLane="best" from="-24448524#1" to="-54624701#7"/>
    <trip id="veh46" type="veh_passenger" depart="88.64" departLane="best" from="877688059" to="3128389#4"/>
    <trip id="veh47" type="veh_passenger" depart="90.57" departLane="best" from="586117612#0" to="4276099#9"/>
    <trip id="veh48" type="veh_passenger" depart="92.50" departLane="best" from="-128541167#1" to="3994574#0"/>
    <trip id="veh49" type="veh_passenger" depart="94.43" departLane="best" from="-4008110#1" to="3986851"/>
    <trip id="veh50" type="veh_passenger" depart="96.35" departLane="best" from="-3792618#4" to="135673339"/>
    <trip id="veh51" type="veh_passenger" depart="98.28" departLane="best" from="143755556#1" to="54624701#8"/>
    <trip id="veh53" type="veh_passenger" depart="102.13" departLane="best" from="24493048#2" to="-3987025"/>
    <trip id="veh55" type="veh_passenger" depart="105.99" departLane="best" from="-4196778" to="3986844#1"/>
    <trip id="veh56" type="veh_passenger" depart="107.92" departLane="best" from="3959567#2" to="-397798570"/>
    <trip id="veh57" type="veh_passenger" depart="109.84" departLane="best" from="3994643#2" to="3241037#1"/>
    <trip id="veh58" type="veh_passenger" depart="111.77" departLane="best" from="4008086#0" to="3128389#9"/>
    <trip id="veh59" type="veh_passenger" depart="113.70" departLane="best" from="-101836399" to="-42737813#2"/>
    <trip id="veh60" type="veh_passenger" depart="115.62" departLane="best" from="-135692152" to="53195536"/>
    <trip id="veh61" type="veh_passenger" depart="117.55" departLane="best" from="45075888#0" to="421621267#7"/>
    <trip id="veh62" type="veh_passenger" depart="119.48" departLane="best" from="-42287830#3" to="-169507718"/>
    <trip id="veh63" type="veh_passenger" depart="121.40" departLane="best" from="45075887" to="54563658#0"/>
    <trip id="veh64" type="veh_passenger" depart="123.33" departLane="best" from="-3128389#6" to="148815880#4"/>
    <trip id="veh65" type="veh_passenger" depart="125.26" departLane="best" from="-24493053#1" to="3994644#0"/>
    <trip id="veh66" type="veh_passenger" depart="127.19" departLane="best" from="3994648" to="-3875398#8"/>
    <trip id="veh67" type="veh_passenger" depart="129.11" departLane="best" from="147495423#0" to="349325744#1"/>
    <trip id="veh68" type="veh_passenger" depart="131.04" departLane="best" from="-4008106" to="44961507#0"/>
    <trip id="veh69" type="veh_passenger" depart="132.97" departLane="best" from="11099894" to="-3993098#7"/>
    <trip id="veh70" type="veh_passenger" depart="134.89" departLane="best" from="3241037#1" to="3994599#0"/>
    <trip id="veh71" type="veh_passenger" depart="136.82" departLane="best" from="-3987141#0" to="-4235420"/>
    <trip id="veh72" type="veh_passenger" depart="138.75" departLane="best" from="874663932#3" to="3987008"/>
    <trip id="veh73" type="veh_passenger" depart="140.68" departLane="best" from="136023185#1" to="291493302#0"/>
    <trip id="veh74" type="veh_passenger" depart="142.60" departLane="best" from="-387369933" to="-3994573"/>
    <trip id="veh75" type="veh_passenger" depart="144.53" departLane="best" from="-44221475#1" to="3875398#5"/>
    <trip id="veh76" type="veh_passenger" depart="146.46" departLane="best" from="-3994578#0" to="-3994566#5"/>
    <trip id="veh77" type="veh_passenger" depart="148.38" departLane="best" from="-24768267#1" to="3986774#0"/>
    <trip id="veh78" type="veh_passenger" depart="150.31" departLane="best" from="-3994576#4" to="5137551#0"/>
    <trip id="veh79" type="veh_passenger" depart="152.24" departLane="best" from="42737813#2" to="-24768267#0"/>
    <trip id="veh80" type="veh_passenger" depart="154.16" departLane="best" from="-3994607#3" to="3987060#3"/>
    <trip id="veh81" type="veh_passenger" depart="156.09" departLane="best" from="-3993102#2" to="-3875478"/>
    <trip id="veh82" type="veh_passenger" depart="158.02" departLane="best" from="53195542" to="3812661#0"/>
    <trip id="veh83" type="veh_passenger" depart="159.95" departLane="best" from="147495405#0" to="4008122#2"/>
    <trip id="veh84" type="veh_passenger" depart="161.87" departLane="best" from="4076091#0" to="-3987060#1"/>
    <trip id="veh85" type="veh_passenger" depart="163.80" departLane="best" from="-3241048#1" to="128541167#5"/>
    <trip id="veh86" type="veh_passenger" depart="165.73" departLane="best" from="11099894" to="143954797#0"/>
    <trip id="veh87" type="veh_passenger" depart="167.65" departLane="best" from="3994578#2" to="3987067#0"/>
    <trip id="veh88" type="veh_passenger" depart="169.58" departLane="best" from="834716406#1" to="-32543608"/>
    <trip id="veh89" type="veh_passenger" depart="171.51" departLane="best" from="-841372001#0" to="-44366388#5"/>
    <trip id="veh90" type="veh_passenger" depart="173.44" departLane="best" from="4275819" to="-3994644#1"/>
    <trip id="veh92" type="veh_passenger" depart="177.29" departLane="best" from="108508527#6" to="-4040779"/>
    <trip id="veh93" type="veh_passenger" depart="179.22" departLane="best" from="-3994645" to="5236365#0"/>
    <trip id="veh94" type="veh_passenger" depart="181.14" departLane="best" from="349325745#0" to="-148815866#2"/>
    <trip id="veh95" type="veh_passenger" depart="183.07" departLane="best" from="96896690" to="4235416#0"/>
    <trip id="veh96" type="veh_passenger" depart="185.00" departLane="best" from="58535222#0" to="53142667#0"/>
    <trip id="veh97" type="veh_passenger" depart="186.93" departLane="best" from="4235444" to="-3986856#0"/>
    <trip id="veh98" type="veh_passenger" depart="188.85" departLane="best" from="148815880#4" to="-3993100#6"/>
    <trip id="veh99" type="veh_passenger" depart="190.78" departLane="best" from="-824240993#10" to="-172879649#1"/>
    <trip id="veh100" type="veh_passenger" depart="192.71" departLane="best" from="-54621757#4" to="834716415#2"/>
    <trip id="veh101" type="veh_passenger" depart="194.63" departLane="best" from="143755556#14" to="11099280#0"/>
    <trip id="veh102" type="veh_passenger" depart="196.56" departLane="best" from="54624698#3" to="874663932#3"/>
    <trip id="veh103" type="veh_passenger" depart="198.49" departLane="best" from="367718571#4" to="3994572#0"/>
    <trip id="veh104" type="veh_passenger" depart="200.41" departLane="best" from="-3986762#0" to="-4196773#0"/>
    <trip id="veh105" type="veh_passenger" depart="202.34" departLane="best" from="58535222#0" to="386908772#0"/>
    <trip id="veh106" type="veh_passenger" depart="204.27" departLane="best" from="32543608" to="3994619"/>
    <trip id="veh107" type="veh_passenger" depart="206.20" departLane="best" from="-169131674#3" to="3875326#4"/>
    <trip id="veh108" type="veh_passenger" depart="208.12" departLane="best" from="24493051#0" to="42737813#3"/>
    <trip id="veh109" type="veh_passenger" depart="210.05" departLane="best" from="-31152413#1" to="-3987040#1"/>
    <trip id="veh110" type="veh_passenger" depart="211.98" departLane="best" from="3875478" to="3987072"/>
    <trip id="veh111" type="veh_passenger" depart="213.90" departLane="best" from="-3994600#1" to="-386808585#8"/>
    <trip id="veh112" type="veh_passenger" depart="215.83" departLane="best" from="4678144" to="-3994643#0"/>
    <trip id="veh114" type="veh_passenger" depart="219.69" departLane="best" from="108328863" to="3875326#3"/>
    <trip id="veh115" type="veh_passenger" depart="221.61" departLane="best" from="31152413#0" to="53238699"/>
    <trip id="veh116" type="veh_passenger" depart="223.54" departLane="best" from="-3992980#1" to="3994569"/>
    <trip id="veh117" type="veh_passenger" depart="225.47" departLane="best" from="-3994607#5" to="-65696403#3"/>
    <trip id="veh118" type="veh_passenger" depart="227.39" departLane="best" from="3987060#3" to="-4196793"/>
    <trip id="veh119" type="veh_passenger" depart="229.32" departLane="best" from="-4241930#20" to="3994623"/>
    <trip id="veh120" type="veh_passenger" depart="231.25" departLane="best" from="-24885144" to="143755560#2"/>
    <trip id="veh121" type="veh_passenger" depart="233.17" departLane="best" from="9042753#0" to="877688059"/>
    <trip id="veh122" type="veh_passenger" depart="235.10" departLane="best" from="-251921812#0" to="-3993100#2"/>
    <trip id="veh123" type="veh_passenger" depart="237.03" departLane="best" from="-4008109#0" to="53195546"/>
    <trip id="veh124" type="veh_passenger" depart="238.96" departLane="best" from="45407793#2" to="4678075#0"/>
    <trip id="veh125" type="veh_passenger" depart="240.88" departLane="best" from="-53162729#1" to="-3986774#4"/>
    <trip id="veh126" type="veh_passenger" depart="242.81" departLane="best" from="4196800" to="3993089#4"/>
    <trip id="veh127" type="veh_passenger" depart="244.74" departLane="best" from="3959569" to="834716416#1"/>
    <trip id="veh128" type="veh_passenger" depart="246.66" departLane="best" from="3987011#0" to="-118626534#1"/>
    <trip id="veh129" type="veh_passenger" depart="248.59" departLane="best" from="4188078#0" to="-4196782"/>
    <trip id="veh130" type="veh_passenger" depart="250.52" departLane="best" from="3987034#1" to="53580498"/>
    <trip id="veh131" type="veh_passenger" depart="252.45" departLane="best" from="-3875500#1" to="-3826038"/>
    <trip id="veh132" type="veh_passenger" depart="254.37" departLane="best" from="-36885220#1" to="367718570#1"/>
    <trip id="veh133" type="veh_passenger" depart="256.30" departLane="best" from="-4008123#3" to="3959564"/>
    <trip id="veh134" type="veh_passenger" depart="258.23" departLane="best" from="3994566#0" to="-3992971"/>
    <trip id="veh135" type="veh_passenger" depart="260.15" departLane="best" from="3986777#0" to="-4008100#1"/>
    <trip id="veh136" type="veh_passenger" depart="262.08" departLane="best" from="165503471" to="5137551#0"/>
    <trip id="veh137" type="veh_passenger" depart="264.01" departLane="best" from="11099894" to="-4008135#0"/>
    <trip id="veh138" type="veh_passenger" depart="265.93" departLane="best" from="-108498337" to="3997872#3"/>
    <trip id="veh139" type="veh_passenger" depart="267.86" departLane="best" from="3986821#0" to="-4008080#2"/>
    <trip id="veh140" type="veh_passenger" depart="269.79" departLane="best" from="3994616#0" to="35137032"/>
    <trip id="veh141" type="veh_passenger" depart="271.72" departLane="best" from="128193545" to="-120447121#2"/>
    <trip id="veh142" type="veh_passenger" depart="273.64" departLane="best" from="-27421491#4" to="4678126"/>
    <trip id="veh143" type="veh_passenger" depart="275.57" departLane="best" from="51285821" to="3384051#1"/>
    <trip id="veh144" type="veh_passenger" depart="277.50" departLane="best" from="421620512#0" to="3875326#1"/>
    <trip id="veh145" type="veh_passenger" depart="279.42" departLane="best" from="-3959603#2" to="-3875398#3"/>
    <trip id="veh146" type="veh_passenger" depart="281.35" departLane="best" from="-42287830#6" to="513363349#1"/>
    <trip id="veh147" type="veh_passenger" depart="283.28" departLane="best" from="504632123#0" to="-3993082#2"/>
    <trip id="veh148" type="veh_passenger" depart="285.21" departLane="best" from="-3994645" to="-365877271#1"/>
    <trip id="veh149" type="veh_passenger" depart="287.13" departLane="best" from="4008104" to="4678143"/>
    <trip id="veh151" type="veh_passenger" depart="290.99" departLane="best" from="-3986762#0" to="53195539"/>
    <trip id="veh152" type="veh_passenger" depart="292.91" departLane="best" from="4276099#3" to="824240993#0"/>
    <trip id="veh153" type="veh_passenger" depart="294.84" departLane="best" from="4076094#0" to="4678118#0"/>
    <trip id="veh154" type="veh_passenger" depart="296.77" departLane="best" from="-143755556#0" to="3994613#1"/>
    <trip id="veh155" type="veh_passenger" depart="298.69" departLane="best" from="-4276099#9" to="53195543"/>
    <trip id="veh156" type="veh_passenger" depart="300.62" departLane="best" from="4066407" to="431083496"/>
    <trip id="veh157" type="veh_passenger" depart="302.55" departLane="best" from="4076094#0" to="-4008110#1"/>
    <trip id="veh158" type="veh_passenger" depart="304.48" departLane="best" from="4008122#2" to="-37632868#3"/>
    <trip id="veh159" type="veh_passenger" depart="306.40" departLane="best" from="43666132#0" to="4276099#4"/>
    <trip id="veh160" type="veh_passenger" depart="308.33" departLane="best" from="-3994571#2" to="4196772#1"/>
    <trip id="veh161" type="veh_passenger" depart="310.26" departLane="best" from="143760220#0" to="-421621267#6"/>
    <trip id="veh162" type="veh_passenger" depart="312.18" departLane="best" from="4040778#2" to="-3994575#3"/>
    <trip id="veh163" type="veh_passenger" depart="314.11" departLane="best" from="-4276099#2" to="431083496"/>
    <trip id="veh164" type="veh_passenger" depart="316.04" departLane="best" from="567520627" to="-4040780"/>
    <trip id="veh165" type="veh_passenger" depart="317.97" departLane="best" from="3986844#1" to="-819481582"/>
    <trip id="veh166" type="veh_passenger" depart="319.89" departLane="best" from="824240993#0" to="3241002#1"/>
    <trip id="veh167" type="veh_passenger" depart="321.82" departLane="best" from="53195548" to="-3826038"/>
    <trip id="veh168" type="veh_passenger" depart="323.75" departLane="best" from="58535225#2" to="-3987025"/>
    <trip id="veh169" type="veh_passenger" depart="325.67" departLane="best" from="54624718#0" to="-4008109#0"/>
    <trip id="veh170" type="veh_passenger" depart="327.60" departLane="best" from="-37849665#0" to="134746679"/>
    <trip id="veh171" type="veh_passenger" depart="329.53" departLane="best" from="3994578#1" to="-4241930#1"/>
    <trip id="veh172" type="veh_passenger" depart="331.45" departLane="best" from="3875518" to="272542814#0"/>
    <trip id="veh173" type="veh_passenger" depart="333.38" departLane="best" from="-55216749" to="386808585#5"/>
    <trip id="veh174" type="veh_passenger" depart="335.31" departLane="best" from="-3994653" to="3993102#0"/>
    <trip id="veh175" type="veh_passenger" depart="337.24" departLane="best" from="-108328862#0" to="53142666#5"/>
    <trip id="veh176" type="veh_passenger" depart="339.16" departLane="best" from="3241020#1" to="3994572#2"/>
    <trip id="veh177" type="veh_passenger" depart="341.09" departLane="best" from="3994616#0" to="3987062"/>
    <trip id="veh178" type="veh_passenger" depart="343.02" departLane="best" from="-51837729#2" to="-24746129"/>
    <trip id="veh179" type="veh_passenger" depart="344.94" departLane="best" from="3987035" to="-4276099#4"/>
    <trip id="veh180" type="veh_passenger" depart="346.87" departLane="best" from="-4241930#12" to="42737812#1"/>
    <trip id="veh181" type="veh_passenger" depart="348.80" departLane="best" from="3994571#1" to="-4196794"/>
    <trip id="veh182" type="veh_passenger" depart="350.73" departLane="best" from="-4235415#1" to="-874663932#1"/>
    <trip id="veh183" type="veh_passenger" depart="352.65" departLane="best" from="-841372001#0" to="-41189619"/>
    <trip id="veh184" type="veh_passenger" depart="354.58" departLane="best" from="-3875398#3" to="108508527#0"/>
    <trip id="veh185" type="veh_passenger" depart="356.51" departLane="best" from="53238700#0" to="3987076#1"/>
    <trip id="veh187" type="veh_passenger" depart="360.36" departLane="best" from="-100026086" to="-4076032#4"/>
    <trip id="veh188" type="veh_passenger" depart="362.29" departLane="best" from="128541167#2" to="386908773"/>
    <trip id="veh189" type="veh_passenger" depart="364.21" departLane="best" from="3987016#0" to="143954794#0"/>
    <trip id="veh190" type="veh_passenger" depart="366.14" departLane="best" from="137322106#0" to="-3993100#6"/>
    <trip id="veh191" type="veh_passenger" depart="368.07" departLane="best" from="147495410#0" to="513367792#5"/>
    <trip id="veh192" type="veh_passenger" depart="370.00" departLane="best" from="4040778#5" to="-3986930#0"/>
    <trip id="veh193" type="veh_passenger" depart="371.92" departLane="best" from="-3128389#3" to="27421491#0"/>
    <trip id="veh194" type="veh_passenger" depart="373.85" departLane="best" from="3986770#0" to="-43666132#2"/>
    <trip id="veh195" type="veh_passenger" depart="375.78" departLane="best" departSpeed="max" from="4188079" to="3994622"/>
    <trip id="veh196" type="veh_passenger" depart="377.70" departLane="best" from="3987061" to="-3994572#2"/>
    <trip id="veh197" type="veh_passenger" depart="379.63" departLane="best" from="-3987076#0" to="-143755555#5"/>
    <trip id="veh198" type="veh_passenger" depart="381.56" departLane="best" from="-3994637" to="147495423#0"/>
    <trip id="veh199" type="veh_passenger" depart="383.49" departLane="best" from="4241930#10" to="-24885144"/>
    <trip id="veh200" type="veh_passenger" depart="385.41" departLane="best" from="-96896691#1" to="3986767#0"/>
    <trip id="veh201" type="veh_passenger" depart="387.34" departLane="best" from="-3987065" to="3993051#0"/>
    <trip id="veh202" type="veh_passenger" depart="389.27" departLane="best" from="211293386#0" to="-3994635#1"/>
    <trip id="veh203" type="veh_passenger" depart="391.19" departLane="best" from="3987016#3" to="-108508527#6"/>
    <trip id="veh204" type="veh_passenger" depart="393.12" departLane="best" from="3994619" to="3997833#0"/>
    <trip id="veh205" type="veh_passenger" depart="395.05" departLane="best" from="-36885220#1" to="118943790"/>
    <trip id="veh206" type="veh_passenger" depart="396.97" departLane="best" from="-3987016#5" to="54624719#0"/>
    <trip id="veh207" type="veh_passenger" depart="398.90" departLane="best" from="297162042" to="-148815866#1"/>
    <trip id="veh208" type="veh_passenger" depart="400.83" departLane="best" from="-3994644#2" to="42737812#3"/>
    <trip id="veh209" type="veh_passenger" depart="402.76" departLane="best" from="143755556#3" to="4076017"/>
    <trip id="veh210" type="veh_passenger" depart="404.68" departLane="best" from="3987043#4" to="83632354#0"/>
    <trip id="veh211" type="veh_passenger" depart="406.61" departLane="best" from="3875499#0" to="54621757#2"/>
    <trip id="veh212" type="veh_passenger" depart="408.54" departLane="best" from="4679009" to="3959582#0"/>
    <trip id="veh213" type="veh_passenger" depart="410.46" departLane="best" from="3994571#0" to="24493053#2"/>
    <trip id="veh216" type="veh_passenger" depart="416.25" departLane="best" from="-3994643#1" to="3986839"/>
    <trip id="veh217" type="veh_passenger" depart="418.17" departLane="best" from="3994648" to="310060808"/>
    <trip id="veh218" type="veh_passenger" depart="420.10" departLane="best" from="3986748" to="-4008131#0"/>
    <trip id="veh219" type="veh_passenger" depart="422.03" departLane="best" from="-3031558#2" to="-4076027#2"/>
    <trip id="veh220" type="veh_passenger" depart="423.95" departLane="best" from="-4008123#2" to="-42737812#2"/>
    <trip id="veh221" type="veh_passenger" depart="425.88" departLane="best" from="3241048#0" to="-3875507#1"/>
    <trip id="veh222" type="veh_passenger" depart="427.81" departLane="best" from="-3994578#2" to="3993011#0"/>
    <trip id="veh223" type="veh_passenger" depart="429.73" departLane="best" from="3993089#4" to="-24493040#2"/>
    <trip id="veh224" type="veh_passenger" depart="431.66" departLane="best" from="101836399" to="-3992990"/>
    <trip id="veh225" type="veh_passenger" depart="433.59" departLane="best" from="108508527#0" to="513369695#3"/>
    <trip id="veh226" type="veh_passenger" depart="435.52" departLane="best" from="3875326#4" to="3993044#0"/>
    <trip id="veh227" type="veh_passenger" depart="437.44" departLane="best" from="42737812#3" to="3994652#0"/>
    <trip id="veh228" type="veh_passenger" depart="439.37" departLane="best" from="-54624701#4" to="-108508527#7"/>
    <trip id="veh229" type="veh_passenger" depart="441.30" departLane="best" from="-478680608" to="3994624#3"/>
    <trip id="veh230" type="veh_passenger" depart="443.22" departLane="best" from="4241930#8" to="54624701#6"/>
    <trip id="veh231" type="veh_passenger" depart="445.15" departLane="best" from="3384051#1" to="3875518"/>
    <trip id="veh232" type="veh_passenger" depart="447.08" departLane="best" from="-3994568#1" to="-3994562"/>
    <trip id="veh233" type="veh_passenger" depart="449.01" departLane="best" from="135673346" to="-143755556#8"/>
    <trip id="veh234" type="veh_passenger" depart="450.93" departLane="best" from="-43666139#1" to="3987079"/>
    <trip id="veh235" type="veh_passenger" depart="452.86" departLane="best" from="-854064691#0" to="-3986851"/>
    <trip id="veh236" type="veh_passenger" depart="454.79" departLane="best" from="143954797#3" to="-3875398#4"/>
    <trip id="veh238" type="veh_passenger" depart="458.64" departLane="best" from="-65696392" to="3792612#0"/>
    <trip id="veh239" type="veh_passenger" depart="460.57" departLane="best" from="-143755556#15" to="3986857#0"/>
    <trip id="veh240" type="veh_passenger" depart="462.49" departLane="best" from="-3875504#1" to="143760228#0"/>
    <trip id="veh241" type="veh_passenger" depart="464.42" departLane="best" from="-148815866#1" to="-54621757#4"/>
    <trip id="veh242" type="veh_passenger" depart="466.35" departLane="best" from="-3993098#7" to="-4276099#11"/>
    <trip id="veh243" type="veh_passenger" depart="468.28" departLane="best" from="3994643#0" to="-54621757#4"/>
    <trip id="veh244" type="veh_passenger" depart="470.20" departLane="best" from="3994620" to="421621267#7"/>
    <trip id="veh245" type="veh_passenger" depart="472.13" departLane="best" from="-3994651#0" to="-3128387#7"/>
    <trip id="veh246" type="veh_passenger" depart="474.06" departLane="best" from="-135685365" to="3241037#1"/>
    <trip id="veh247" type="veh_passenger" depart="475.98" departLane="best" from="96896691#1" to="-4678941"/>
    <trip id="veh248" type="veh_passenger" depart="477.91" departLane="best" from="3986931#2" to="4008114#0"/>
    <trip id="veh249" type="veh_passenger" depart="479.84" departLane="best" from="3987006#0" to="3994624#3"/>
    <trip id="veh250" type="veh_passenger" depart="481.77" departLane="best" from="54563619#0" to="-3987076#0"/>
    <trip id="veh252" type="veh_passenger" depart="485.62" departLane="best" from="-3875395#2" to="3987060#4"/>
    <trip id="veh253" type="veh_passenger" depart="487.55" departLane="best" from="37849665#4" to="-3994561#0"/>
    <trip id="veh254" type="veh_passenger" depart="489.47" departLane="best" from="3993059#0" to="3994652#3"/>
    <trip id="veh255" type="veh_passenger" depart="491.40" departLane="best" from="-3986857#2" to="3959567#3"/>
    <trip id="veh256" type="veh_passenger" depart="493.33" departLane="best" from="3994616#6" to="-3812661#5"/>
    <trip id="veh257" type="veh_passenger" depart="495.25" departLane="best" departSpeed="max" from="4188079" to="58535225#0"/>
    <trip id="veh258" type="veh_passenger" depart="497.18" departLane="best" from="-37632868#3" to="-143755556#1"/>
    <trip id="veh259" type="veh_passenger" depart="499.11" departLane="best" from="-4235426#0" to="3987076#1"/>
    <trip id="veh260" type="veh_passenger" depart="501.04" departLane="best" from="54624701#5" to="-70296974#4"/>
    <trip id="veh261" type="veh_passenger" depart="502.96" departLane="best" from="3994556#0" to="-297162042"/>
    <trip id="veh262" type="veh_passenger" depart="504.89" departLane="best" from="3992980#2" to="3986762#2"/>
    <trip id="veh263" type="veh_passenger" depart="506.82" departLane="best" from="-362280437#2" to="3997937#3"/>
    <trip id="veh264" type="veh_passenger" depart="508.74" departLane="best" from="4241930#13" to="3875508#3"/>
    <trip id="veh265" type="veh_passenger" depart="510.67" departLane="best" from="-387369933" to="834716406#1"/>
    <trip id="veh266" type="veh_passenger" depart="512.60" departLane="best" from="4008109#2" to="-4678084#0"/>
    <trip id="veh267" type="veh_passenger" depart="514.53" departLane="best" from="128541167#0" to="-53195538"/>
    <trip id="veh268" type="veh_passenger" depart="516.45" departLane="best" from="24768267#0" to="-45075889#1"/>
    <trip id="veh269" type="veh_passenger" depart="518.38" departLane="best" from="4241930#10" to="4196789#0"/>