<?xml version="1.0" encoding="UTF-8"?>

<!-- generated on Sun Dec 13 13:38:16 2020 by Eclipse SUMO netconvert Version 1.8.0
<configuration xmlns:xsi="http://www.w3.org/2001/XMLSchema-instance" xsi:noNamespaceSchemaLocation="http://sumo.dlr.de/xsd/netconvertConfiguration.xsd">

    <input>
        <type-files value="/usr/local/opt/sumo/share/sumo/data/typemap/osmNetconvert.typ.xml"/>
        <osm-files value="osm_bbox.osm.xml"/>
    </input>

    <output>
        <output-file value="osm.net.xml"/>
        <output.street-names value="true"/>
        <output.original-names value="true"/>
    </output>

    <projection>
        <proj.utm value="true"/>
    </projection>

    <processing>
        <geometry.remove value="true"/>
        <roundabouts.guess value="true"/>
        <lefthand value="true"/>
    </processing>

    <tls_building>
        <tls.discard-simple value="true"/>
        <tls.join value="true"/>
        <tls.guess-signals value="true"/>
        <tls.default-type value="actuated"/>
    </tls_building>

    <ramp_guessing>
        <ramps.guess value="true"/>
    </ramp_guessing>

    <edge_removal>
        <keep-edges.by-vclass value="passenger"/>
    </edge_removal>

    <junctions>
        <junctions.join value="true"/>
        <junctions.corner-detail value="5"/>
    </junctions>

    <report>
        <verbose value="true"/>
        <aggregate-warnings value="5"/>
    </report>

</configuration>
-->

<net version="1.6" junctionCornerDetail="5" lefthand="true" limitTurnSpeed="5.50" xmlns:xsi="http://www.w3.org/2001/XMLSchema-instance" xsi:noNamespaceSchemaLocation="http://sumo.dlr.de/xsd/net_file.xsd">

    <location netOffset="-302005.91,-5786591.50" convBoundary="0.00,-0.00,3513.60,3064.05" origBoundary="0.091677,52.189966,0.173758,52.236094" projParameter="+proj=utm +zone=31 +ellps=WGS84 +datum=WGS84 +units=m +no_defs"/>

    <type id="highway.bridleway" priority="1" numLanes="1" speed="2.78" allow="pedestrian" oneway="1" width="2.00"/>
    <type id="highway.bus_guideway" priority="1" numLanes="1" speed="27.78" allow="bus" oneway="1"/>
    <type id="highway.cycleway" priority="1" numLanes="1" speed="8.33" allow="bicycle" oneway="0" width="1.00"/>
    <type id="highway.footway" priority="1" numLanes="1" speed="2.78" allow="pedestrian" oneway="1" width="2.00"/>
    <type id="highway.ford" priority="1" numLanes="1" speed="2.78" allow="army" oneway="0"/>
    <type id="highway.living_street" priority="2" numLanes="1" speed="2.78" disallow="tram rail_urban rail rail_electric rail_fast ship" oneway="0"/>
    <type id="highway.motorway" priority="14" numLanes="2" speed="39.44" allow="private emergency authority army vip passenger hov taxi bus coach delivery truck trailer motorcycle evehicle custom1 custom2" oneway="1"/>
    <type id="highway.motorway_link" priority="9" numLanes="1" speed="22.22" allow="private emergency authority army vip passenger hov taxi bus coach delivery truck trailer motorcycle evehicle custom1 custom2" oneway="1"/>
    <type id="highway.path" priority="1" numLanes="1" speed="2.78" allow="pedestrian bicycle" oneway="0" width="2.00"/>
    <type id="highway.pedestrian" priority="1" numLanes="1" speed="2.78" allow="pedestrian" oneway="1" width="2.00"/>
    <type id="highway.primary" priority="12" numLanes="2" speed="27.78" disallow="tram rail_urban rail rail_electric rail_fast ship" oneway="0"/>
    <type id="highway.primary_link" priority="7" numLanes="1" speed="22.22" disallow="tram rail_urban rail rail_electric rail_fast ship" oneway="0"/>
    <type id="highway.raceway" priority="15" numLanes="2" speed="83.33" allow="vip" oneway="0"/>
    <type id="highway.residential" priority="3" numLanes="1" speed="13.89" disallow="tram rail_urban rail rail_electric rail_fast ship" oneway="0"/>
    <type id="highway.secondary" priority="11" numLanes="1" speed="27.78" disallow="tram rail_urban rail rail_electric rail_fast ship" oneway="0"/>
    <type id="highway.secondary_link" priority="6" numLanes="1" speed="22.22" disallow="tram rail_urban rail rail_electric rail_fast ship" oneway="0"/>
    <type id="highway.service" priority="1" numLanes="1" speed="5.56" allow="pedestrian delivery bicycle" oneway="0"/>
    <type id="highway.stairs" priority="1" numLanes="1" speed="1.39" allow="pedestrian" oneway="1" width="2.00"/>
    <type id="highway.step" priority="1" numLanes="1" speed="1.39" allow="pedestrian" oneway="1" width="2.00"/>
    <type id="highway.steps" priority="1" numLanes="1" speed="1.39" allow="pedestrian" oneway="1" width="2.00"/>
    <type id="highway.tertiary" priority="10" numLanes="1" speed="22.22" disallow="tram rail_urban rail rail_electric rail_fast ship" oneway="0"/>
    <type id="highway.tertiary_link" priority="5" numLanes="1" speed="22.22" disallow="tram rail_urban rail rail_electric rail_fast ship" oneway="0"/>
    <type id="highway.track" priority="1" numLanes="1" speed="5.56" allow="pedestrian motorcycle moped bicycle" oneway="0"/>
    <type id="highway.trunk" priority="13" numLanes="2" speed="27.78" disallow="pedestrian bicycle tram rail_urban rail rail_electric rail_fast ship" oneway="0"/>
    <type id="highway.trunk_link" priority="8" numLanes="1" speed="22.22" disallow="pedestrian bicycle tram rail_urban rail rail_electric rail_fast ship" oneway="0"/>
    <type id="highway.unclassified" priority="4" numLanes="1" speed="13.89" disallow="tram rail_urban rail rail_electric rail_fast ship" oneway="0"/>
    <type id="highway.unsurfaced" priority="1" numLanes="1" speed="8.33" disallow="tram rail_urban rail rail_electric rail_fast ship" oneway="0"/>
    <type id="railway.highspeed" priority="21" numLanes="1" speed="69.44" allow="rail_fast" oneway="1"/>
    <type id="railway.light_rail" priority="19" numLanes="1" speed="27.78" allow="rail_urban" oneway="1"/>
    <type id="railway.preserved" priority="16" numLanes="1" speed="27.78" allow="rail" oneway="1"/>
    <type id="railway.rail" priority="20" numLanes="1" speed="44.44" allow="rail" oneway="1"/>
    <type id="railway.subway" priority="18" numLanes="1" speed="27.78" allow="rail_urban" oneway="1"/>
    <type id="railway.tram" priority="17" numLanes="1" speed="13.89" allow="tram" oneway="1"/>

    <edge id=":104521_0" function="internal">
        <lane id=":104521_0_0" index="0" disallow="tram rail_urban rail rail_electric rail_fast ship" speed="8.94" length="10.00" shape="1432.45,989.59 1436.82,980.60"/>
    </edge>
    <edge id=":104521_1" function="internal">
        <lane id=":104521_1_0" index="0" disallow="tram rail_urban rail rail_electric rail_fast ship" speed="6.68" length="8.39" shape="1429.66,983.17 1431.94,983.64 1433.89,983.36 1435.52,982.35 1436.82,980.60"/>
    </edge>
    <edge id=":104522_0" function="internal">
        <lane id=":104522_0_0" index="0" disallow="tram rail_urban rail rail_electric rail_fast ship" speed="6.97" length="7.96" shape="1412.16,1045.32 1410.66,1043.57 1409.83,1041.80 1409.68,1040.00 1410.20,1038.18"/>
    </edge>
    <edge id=":104522_1" function="internal">
        <lane id=":104522_1_0" index="0" disallow="tram rail_urban rail rail_electric rail_fast ship" speed="5.47" length="7.45" shape="1412.16,1045.32 1410.41,1044.08 1408.84,1043.84 1407.45,1044.61 1406.24,1046.38"/>
    </edge>
    <edge id=":104523_0" function="internal">
        <lane id=":104523_0_0" index="0" disallow="tram rail_urban rail rail_electric rail_fast ship" speed="8.94" length="0.10" shape="1330.03,1185.14 1330.03,1185.14"/>
    </edge>
    <edge id=":104527_0" function="internal">
        <lane id=":104527_0_0" index="0" disallow="tram rail_urban rail rail_electric rail_fast ship" speed="8.94" length="5.02" shape="1123.44,1536.38 1118.59,1537.64"/>
    </edge>
    <edge id=":104527_1" function="internal">
        <lane id=":104527_1_0" index="0" disallow="tram rail_urban rail rail_electric rail_fast ship" speed="3.65" length="4.67" shape="1121.36,1539.23 1121.27,1537.79 1120.77,1537.05 1119.88,1537.00 1118.59,1537.64"/>
    </edge>
    <edge id=":104533_0" function="internal">
        <lane id=":104533_0_0" index="0" disallow="tram rail_urban rail rail_electric rail_fast ship" speed="4.18" length="1.29" shape="1304.69,1397.40 1304.69,1397.73 1304.75,1398.04 1304.87,1398.33 1305.06,1398.60"/>
    </edge>
    <edge id=":104534_0" function="internal">
        <lane id=":104534_0_0" index="0" disallow="tram rail_urban rail rail_electric rail_fast ship" speed="8.94" length="14.85" shape="1463.96,1410.09 1449.16,1408.89"/>
    </edge>
    <edge id=":104534_1" function="internal">
        <lane id=":104534_1_0" index="0" disallow="tram rail_urban rail rail_electric rail_fast ship" speed="7.56" length="15.54" shape="1463.96,1410.09 1459.49,1410.29 1456.63,1411.92 1455.36,1414.96 1455.69,1419.42"/>
    </edge>
    <edge id=":104534_2" function="internal">
        <lane id=":104534_2_0" index="0" disallow="tram rail_urban rail rail_electric rail_fast ship" speed="3.65" length="4.67" shape="1463.96,1410.09 1462.69,1410.77 1462.22,1411.53 1462.54,1412.36 1463.66,1413.27"/>
    </edge>
    <edge id=":104534_3" function="internal">
        <lane id=":104534_3_0" index="0" disallow="tram rail_urban rail rail_electric rail_fast ship" speed="5.94" length="9.09" shape="1458.82,1418.74 1458.62,1416.13 1459.37,1414.35 1461.04,1413.39 1463.66,1413.27"/>
    </edge>
    <edge id=":104534_4" function="internal">
        <lane id=":104534_4_0" index="0" disallow="tram rail_urban rail rail_electric rail_fast ship" speed="8.94" length="14.91" shape="1458.82,1418.74 1457.44,1414.61 1455.38,1411.59 1452.61,1409.68 1449.16,1408.89"/>
    </edge>
    <edge id=":104534_5" function="internal">
        <lane id=":104534_5_0" index="0" disallow="tram rail_urban rail rail_electric rail_fast ship" speed="3.65" length="4.67" shape="1458.82,1418.74 1457.78,1417.74 1456.91,1417.52 1456.22,1418.08 1455.69,1419.42"/>
    </edge>
    <edge id=":104534_6" function="internal">
        <lane id=":104534_6_0" index="0" disallow="tram rail_urban rail rail_electric rail_fast ship" speed="7.85" length="10.75" shape="1448.96,1412.09 1451.33,1412.67 1453.24,1414.08 1454.70,1416.33 1455.69,1419.42"/>
    </edge>
    <edge id=":104534_7" function="internal">
        <lane id=":104534_7_0" index="0" disallow="tram rail_urban rail rail_electric rail_fast ship" speed="8.94" length="14.75" shape="1448.96,1412.09 1463.66,1413.27"/>
    </edge>
    <edge id=":104534_8" function="internal">
        <lane id=":104534_8_0" index="0" disallow="tram rail_urban rail rail_electric rail_fast ship" speed="3.65" length="4.67" shape="1448.96,1412.09 1450.21,1411.36 1450.65,1410.59 1450.30,1409.77 1449.16,1408.89"/>
    </edge>
    <edge id=":104541_0" function="internal">
        <lane id=":104541_0_0" index="0" disallow="tram rail_urban rail rail_electric rail_fast ship" speed="8.94" length="14.11" shape="1058.24,1624.40 1049.42,1635.42"/>
    </edge>
    <edge id=":104541_1" function="internal">
        <lane id=":104541_1_0" index="0" disallow="tram rail_urban rail rail_electric rail_fast ship" speed="8.24" length="14.15" shape="1058.24,1624.40 1056.43,1627.71 1056.08,1630.90 1057.18,1633.98 1059.72,1636.93"/>
    </edge>
    <edge id=":104541_2" function="internal">
        <lane id=":104541_2_0" index="0" disallow="tram rail_urban rail rail_electric rail_fast ship" speed="3.65" length="4.67" shape="1058.24,1624.40 1058.16,1625.84 1058.56,1626.64 1059.44,1626.80 1060.80,1626.32"/>
    </edge>
    <edge id=":104541_3" function="internal">
        <lane id=":104541_3_0" index="0" disallow="tram rail_urban rail rail_electric rail_fast ship" speed="6.79" length="9.29" shape="1061.85,1634.54 1060.16,1632.58 1059.42,1630.56 1059.63,1628.47 1060.80,1626.32"/>
    </edge>
    <edge id=":104541_4" function="internal">
        <lane id=":104541_4_0" index="0" disallow="tram rail_urban rail rail_electric rail_fast ship" speed="7.96" length="14.27" shape="1061.85,1634.54 1058.57,1632.38 1055.41,1631.81 1052.36,1632.82 1049.42,1635.42"/>
    </edge>
    <edge id=":104541_5" function="internal">
        <lane id=":104541_5_0" index="0" disallow="tram rail_urban rail rail_electric rail_fast ship" speed="3.65" length="4.67" shape="1061.85,1634.54 1060.42,1634.34 1059.59,1634.68 1059.36,1635.54 1059.72,1636.93"/>
    </edge>
    <edge id=":104541_6" function="internal">
        <lane id=":104541_6_0" index="0" disallow="tram rail_urban rail rail_electric rail_fast ship" speed="6.46" length="9.03" shape="1051.86,1637.49 1053.72,1635.85 1055.65,1635.20 1057.65,1635.57 1059.72,1636.93"/>
    </edge>
    <edge id=":104541_7" function="internal">
        <lane id=":104541_7_0" index="0" disallow="tram rail_urban rail rail_electric rail_fast ship" speed="8.94" length="14.31" shape="1051.86,1637.49 1060.80,1626.32"/>
    </edge>
    <edge id=":104541_8" function="internal">
        <lane id=":104541_8_0" index="0" disallow="tram rail_urban rail rail_electric rail_fast ship" speed="3.65" length="4.67" shape="1051.86,1637.49 1052.03,1636.06 1051.68,1635.24 1050.81,1635.02 1049.42,1635.42"/>
    </edge>
    <edge id=":104542_0" function="internal">
        <lane id=":104542_0_0" index="0" disallow="tram rail_urban rail rail_electric rail_fast ship" speed="6.97" length="11.08" shape="1118.21,1757.01 1115.37,1758.53 1112.86,1758.80 1110.65,1757.83 1108.75,1755.61"/>
    </edge>
    <edge id=":104542_1" function="internal">
        <lane id=":104542_1_0" index="0" disallow="tram rail_urban rail rail_electric rail_fast ship" speed="8.94" length="15.45" shape="1118.21,1757.01 1105.29,1765.48"/>
    </edge>
    <edge id=":104542_2" function="internal">
        <lane id=":104542_2_0" index="0" disallow="tram rail_urban rail rail_electric rail_fast ship" speed="7.84" length="14.56" shape="1118.21,1757.01 1115.29,1759.81 1114.07,1762.81 1114.55,1766.01 1116.74,1769.41"/>
    </edge>
    <edge id=":104542_3" function="internal">
        <lane id=":104542_3_0" index="0" disallow="tram rail_urban rail rail_electric rail_fast ship" speed="3.65" length="4.67" shape="1118.21,1757.01 1117.70,1758.36 1117.84,1759.25 1118.63,1759.66 1120.07,1759.62"/>
    </edge>
    <edge id=":104542_4" function="internal">
        <lane id=":104542_4_0" index="0" disallow="tram rail_urban rail rail_electric rail_fast ship" speed="6.32" length="9.04" shape="1119.16,1767.32 1117.80,1765.20 1117.50,1763.22 1118.26,1761.35 1120.07,1759.62"/>
    </edge>
    <edge id=":104542_5" function="internal">
        <lane id=":104542_5_0" index="0" disallow="tram rail_urban rail rail_electric rail_fast ship" speed="8.94" length="15.68" shape="1119.16,1767.32 1116.52,1764.49 1113.71,1761.65 1111.02,1758.71 1108.75,1755.61"/>
    </edge>
    <edge id=":104542_6" function="internal">
        <lane id=":104542_6_0" index="0" disallow="tram rail_urban rail rail_electric rail_fast ship" speed="8.74" length="14.87" shape="1119.16,1767.32 1116.33,1765.28 1112.63,1764.24 1108.73,1764.28 1105.29,1765.48"/>
    </edge>
    <edge id=":104542_7" function="internal">
        <lane id=":104542_7_0" index="0" disallow="tram rail_urban rail rail_electric rail_fast ship" speed="3.65" length="4.67" shape="1119.16,1767.32 1117.77,1766.93 1116.90,1767.15 1116.56,1767.98 1116.74,1769.41"/>
    </edge>
    <edge id=":104542_8" function="internal">
        <lane id=":104542_8_0" index="0" disallow="tram rail_urban rail rail_electric rail_fast ship" speed="7.55" length="10.88" shape="1106.94,1768.22 1109.71,1766.99 1112.27,1766.78 1114.61,1767.59 1116.74,1769.41"/>
    </edge>
    <edge id=":104542_9" function="internal">
        <lane id=":104542_9_0" index="0" disallow="tram rail_urban rail rail_electric rail_fast ship" speed="8.94" length="15.70" shape="1106.94,1768.22 1120.07,1759.62"/>
    </edge>
    <edge id=":104542_10" function="internal">
        <lane id=":104542_10_0" index="0" disallow="tram rail_urban rail rail_electric rail_fast ship" speed="8.06" length="14.51" shape="1106.94,1768.22 1109.66,1765.86 1110.88,1762.97 1110.57,1759.55 1108.75,1755.61"/>
    </edge>
    <edge id=":104542_11" function="internal">
        <lane id=":104542_11_0" index="0" disallow="tram rail_urban rail rail_electric rail_fast ship" speed="3.65" length="4.67" shape="1106.94,1768.22 1107.55,1766.91 1107.48,1766.02 1106.73,1765.54 1105.29,1765.48"/>
    </edge>
    <edge id=":104542_12" function="internal">
        <lane id=":104542_12_0" index="0" disallow="tram rail_urban rail rail_electric rail_fast ship" speed="6.39" length="8.71" shape="1106.41,1757.92 1107.50,1760.28 1107.67,1762.32 1106.93,1764.06 1105.29,1765.48"/>
    </edge>
    <edge id=":104542_13" function="internal">
        <lane id=":104542_13_0" index="0" disallow="tram rail_urban rail rail_electric rail_fast ship" speed="8.94" length="15.47" shape="1106.41,1757.92 1108.67,1760.98 1111.33,1763.85 1114.11,1766.62 1116.74,1769.41"/>
    </edge>
    <edge id=":104542_14" function="internal">
        <lane id=":104542_14_0" index="0" disallow="tram rail_urban rail rail_electric rail_fast ship" speed="8.00" length="14.95" shape="1106.41,1757.92 1109.03,1760.21 1112.74,1761.23 1116.70,1761.03 1120.07,1759.62"/>
    </edge>
    <edge id=":104542_15" function="internal">
        <lane id=":104542_15_0" index="0" disallow="tram rail_urban rail rail_electric rail_fast ship" speed="3.68" length="4.80" shape="1106.41,1757.92 1107.86,1758.22 1108.74,1757.93 1109.03,1757.07 1108.75,1755.61"/>
    </edge>
    <edge id=":104543_0" function="internal">
        <lane id=":104543_0_0" index="0" disallow="tram rail_urban rail rail_electric rail_fast ship" speed="8.94" length="14.86" shape="1174.84,1715.89 1171.89,1718.15 1168.82,1720.21 1165.71,1722.24 1162.67,1724.39"/>
    </edge>
    <edge id=":104543_1" function="internal">
        <lane id=":104543_1_0" index="0" disallow="tram rail_urban rail rail_electric rail_fast ship" speed="8.12" length="14.20" shape="1174.84,1715.89 1172.05,1718.91 1170.76,1721.98 1170.99,1725.10 1172.73,1728.28"/>
    </edge>
    <edge id=":104543_2" function="internal">
        <lane id=":104543_2_0" index="0" disallow="tram rail_urban rail rail_electric rail_fast ship" speed="3.66" length="4.72" shape="1174.84,1715.89 1174.24,1717.21 1174.33,1718.11 1175.10,1718.59 1176.55,1718.63"/>
    </edge>
    <edge id=":104543_3" function="internal">
        <lane id=":104543_3_0" index="0" disallow="tram rail_urban rail rail_electric rail_fast ship" speed="6.52" length="8.80" shape="1175.25,1726.31 1174.17,1724.34 1174.03,1722.41 1174.82,1720.50 1176.55,1718.63"/>
    </edge>
    <edge id=":104543_4" function="internal">
        <lane id=":104543_4_0" index="0" disallow="tram rail_urban rail rail_electric rail_fast ship" speed="8.11" length="14.47" shape="1175.25,1726.31 1172.36,1723.49 1169.30,1722.23 1166.07,1722.53 1162.67,1724.39"/>
    </edge>
    <edge id=":104543_5" function="internal">
        <lane id=":104543_5_0" index="0" disallow="tram rail_urban rail rail_electric rail_fast ship" speed="3.65" length="4.67" shape="1175.25,1726.31 1173.88,1725.86 1173.00,1726.03 1172.62,1726.84 1172.73,1728.28"/>
    </edge>
    <edge id=":104543_6" function="internal">
        <lane id=":104543_6_0" index="0" disallow="tram rail_urban rail rail_electric rail_fast ship" speed="6.64" length="9.35" shape="1164.61,1726.94 1166.78,1725.76 1168.86,1725.59 1170.84,1726.43 1172.73,1728.28"/>
    </edge>
    <edge id=":104543_7" function="internal">
        <lane id=":104543_7_0" index="0" disallow="tram rail_urban rail rail_electric rail_fast ship" speed="8.94" length="14.55" shape="1164.61,1726.94 1176.55,1718.63"/>
    </edge>
    <edge id=":104543_8" function="internal">
        <lane id=":104543_8_0" index="0" disallow="tram rail_urban rail rail_electric rail_fast ship" speed="3.65" length="4.67" shape="1164.61,1726.94 1165.08,1725.58 1164.91,1724.70 1164.11,1724.30 1162.67,1724.39"/>
    </edge>
    <edge id=":104550_0" function="internal">
        <lane id=":104550_0_0" index="0" disallow="tram rail_urban rail rail_electric rail_fast ship" speed="6.04" length="7.86" shape="1237.47,911.17 1237.31,912.63 1238.05,913.99 1239.69,915.23 1242.23,916.36"/>
    </edge>
    <edge id=":104550_1" function="internal">
        <lane id=":104550_1_0" index="0" disallow="tram rail_urban rail rail_electric rail_fast ship" speed="3.65" length="4.67" shape="1237.47,911.17 1237.76,912.58 1238.35,913.25 1239.25,913.17 1240.44,912.36"/>
    </edge>
    <edge id=":104550_2" function="internal">
        <lane id=":104550_2_0" index="0" disallow="tram rail_urban rail rail_electric rail_fast ship" speed="8.94" length="9.35" shape="1233.38,913.37 1242.23,916.36"/>
    </edge>
    <edge id=":104550_3" function="internal">
        <lane id=":104550_3_0" index="0" disallow="tram rail_urban rail rail_electric rail_fast ship" speed="6.26" length="7.80" shape="1233.38,913.37 1236.03,914.00 1238.09,914.05 1239.56,913.50 1240.44,912.36"/>
    </edge>
    <edge id=":104551_0" function="internal">
        <lane id=":104551_0_0" index="0" disallow="tram rail_urban rail rail_electric rail_fast ship" speed="6.81" length="9.32" shape="1061.43,813.44 1059.99,815.43 1058.20,816.53 1056.04,816.75 1053.53,816.09"/>
    </edge>
    <edge id=":104551_1" function="internal">
        <lane id=":104551_1_0" index="0" disallow="tram rail_urban rail rail_electric rail_fast ship" speed="8.94" length="14.31" shape="1061.43,813.44 1055.27,826.36"/>
    </edge>
    <edge id=":104551_2" function="internal">
        <lane id=":104551_2_0" index="0" disallow="tram rail_urban rail rail_electric rail_fast ship" speed="7.46" length="12.68" shape="1061.43,813.44 1060.53,816.40 1061.04,819.03 1062.96,821.35 1066.30,823.35"/>
    </edge>
    <edge id=":104551_3" function="internal">
        <lane id=":104551_3_0" index="0" disallow="tram rail_urban rail rail_electric rail_fast ship" speed="3.65" length="4.67" shape="1061.43,813.44 1061.59,814.88 1062.11,815.60 1063.01,815.61 1064.27,814.91"/>
    </edge>
    <edge id=":104551_4" function="internal">
        <lane id=":104551_4_0" index="0" disallow="tram rail_urban rail rail_electric rail_fast ship" speed="6.92" length="10.44" shape="1058.20,827.65 1059.80,824.88 1061.69,823.24 1063.85,822.73 1066.30,823.35"/>
    </edge>
    <edge id=":104551_5" function="internal">
        <lane id=":104551_5_0" index="0" disallow="tram rail_urban rail rail_electric rail_fast ship" speed="8.94" length="14.11" shape="1058.20,827.65 1064.27,814.91"/>
    </edge>
    <edge id=":104551_6" function="internal">
        <lane id=":104551_6_0" index="0" disallow="tram rail_urban rail rail_electric rail_fast ship" speed="7.95" length="14.30" shape="1058.20,827.65 1059.26,823.86 1058.83,820.67 1056.92,818.08 1053.53,816.09"/>
    </edge>
    <edge id=":104551_7" function="internal">
        <lane id=":104551_7_0" index="0" disallow="tram rail_urban rail rail_electric rail_fast ship" speed="3.65" length="4.67" shape="1058.20,827.65 1057.95,826.22 1057.38,825.54 1056.48,825.58 1055.27,826.36"/>
    </edge>
    <edge id=":104551_8" function="internal">
        <lane id=":104551_8_0" index="0" disallow="tram rail_urban rail rail_electric rail_fast ship" speed="6.45" length="9.03" shape="1052.32,819.06 1054.46,820.31 1055.67,821.95 1055.94,823.96 1055.27,826.36"/>
    </edge>
    <edge id=":104551_9" function="internal">
        <lane id=":104551_9_0" index="0" disallow="tram rail_urban rail rail_electric rail_fast ship" speed="8.94" length="14.64" shape="1052.32,819.06 1055.82,820.23 1059.34,821.13 1062.85,822.07 1066.30,823.35"/>
    </edge>
    <edge id=":104551_10" function="internal">
        <lane id=":104551_10_0" index="0" disallow="tram rail_urban rail rail_electric rail_fast ship" speed="8.26" length="14.16" shape="1052.32,819.06 1056.10,820.04 1059.36,819.67 1062.08,817.97 1064.27,814.91"/>
    </edge>
    <edge id=":104551_11" function="internal">
        <lane id=":104551_11_0" index="0" disallow="tram rail_urban rail rail_electric rail_fast ship" speed="3.65" length="4.67" shape="1052.32,819.06 1053.73,818.77 1054.40,818.18 1054.34,817.29 1053.53,816.09"/>
    </edge>
    <edge id=":104554_0" function="internal">
        <lane id=":104554_0_0" index="0" disallow="tram rail_urban rail rail_electric rail_fast ship" speed="7.88" length="11.49" shape="896.09,1800.33 894.10,1801.94 891.67,1802.56 888.82,1802.19 885.54,1800.82"/>
    </edge>
    <edge id=":104554_1" function="internal">
        <lane id=":104554_1_0" index="0" disallow="tram rail_urban rail rail_electric rail_fast ship" speed="11.18" length="21.26" shape="896.09,1800.33 882.53,1816.70"/>
    </edge>
    <edge id=":104554_2" function="internal">
        <lane id=":104554_2_0" index="0" disallow="tram rail_urban rail rail_electric rail_fast ship" speed="9.21" length="7.70" shape="896.09,1800.33 893.25,1804.61 892.57,1807.09"/>
    </edge>
    <edge id=":104554_3" function="internal">
        <lane id=":104554_3_0" index="0" disallow="tram rail_urban rail rail_electric rail_fast ship" speed="3.65" length="2.34" shape="896.09,1800.33 895.93,1801.77 896.28,1802.59"/>
    </edge>
    <edge id=":104554_17" function="internal">
        <lane id=":104554_17_0" index="0" disallow="tram rail_urban rail rail_electric rail_fast ship" speed="9.21" length="9.79" shape="892.57,1807.09 892.15,1808.65 892.79,1812.46 895.18,1816.04"/>
    </edge>
    <edge id=":104554_18" function="internal">
        <lane id=":104554_18_0" index="0" disallow="tram rail_urban rail rail_electric rail_fast ship" speed="3.65" length="2.34" shape="896.28,1802.59 897.15,1802.80 898.53,1802.40"/>
    </edge>
    <edge id=":104554_4" function="internal">
        <lane id=":104554_4_0" index="0" disallow="tram rail_urban rail rail_electric rail_fast ship" speed="7.22" length="10.37" shape="899.84,1811.65 897.95,1809.16 897.11,1806.79 897.30,1804.53 898.53,1802.40"/>
    </edge>
    <edge id=":104554_5" function="internal">
        <lane id=":104554_5_0" index="0" disallow="tram rail_urban rail rail_electric rail_fast ship" speed="13.41" length="17.56" shape="899.84,1811.65 896.13,1807.80 893.36,1805.37 890.25,1803.38 885.54,1800.82"/>
        <lane id=":104554_5_1" index="1" disallow="tram rail_urban rail rail_electric rail_fast ship" speed="13.41" length="17.56" shape="897.51,1813.85 894.01,1810.22 891.40,1807.93 888.48,1806.05 884.04,1803.65"/>
    </edge>
    <edge id=":104554_7" function="internal">
        <lane id=":104554_7_0" index="0" disallow="tram rail_urban rail rail_electric rail_fast ship" speed="3.65" length="2.34" shape="897.51,1813.85 896.11,1813.52 895.25,1813.78"/>
    </edge>
    <edge id=":104554_19" function="internal">
        <lane id=":104554_19_0" index="0" disallow="tram rail_urban rail rail_electric rail_fast ship" speed="3.65" length="2.34" shape="895.25,1813.78 894.94,1814.62 895.18,1816.04"/>
    </edge>
    <edge id=":104554_8" function="internal">
        <lane id=":104554_8_0" index="0" disallow="tram rail_urban rail rail_electric rail_fast ship" speed="6.30" length="9.25" shape="885.01,1818.72 886.94,1816.92 888.89,1816.24 890.86,1816.68 892.85,1818.24"/>
    </edge>
    <edge id=":104554_9" function="internal">
        <lane id=":104554_9_0" index="0" disallow="tram rail_urban rail rail_electric rail_fast ship" speed="11.18" length="21.19" shape="885.01,1818.72 898.53,1802.40"/>
    </edge>
    <edge id=":104554_10" function="internal">
        <lane id=":104554_10_0" index="0" disallow="tram rail_urban rail rail_electric rail_fast ship" speed="8.38" length="7.58" shape="885.01,1818.72 888.05,1813.97 888.44,1812.07"/>
    </edge>
    <edge id=":104554_11" function="internal">
        <lane id=":104554_11_0" index="0" disallow="tram rail_urban rail rail_electric rail_fast ship" speed="3.65" length="2.34" shape="885.01,1818.72 885.15,1817.28 884.78,1816.47"/>
    </edge>
    <edge id=":104554_20" function="internal">
        <lane id=":104554_20_0" index="0" disallow="tram rail_urban rail rail_electric rail_fast ship" speed="8.38" length="10.43" shape="888.44,1812.07 888.90,1809.87 887.56,1806.43 884.04,1803.65"/>
    </edge>
    <edge id=":104554_21" function="internal">
        <lane id=":104554_21_0" index="0" disallow="tram rail_urban rail rail_electric rail_fast ship" speed="3.65" length="2.34" shape="884.78,1816.47 883.91,1816.28 882.53,1816.70"/>
    </edge>
    <edge id=":104554_12" function="internal">
        <lane id=":104554_12_0" index="0" disallow="tram rail_urban rail rail_electric rail_fast ship" speed="6.13" length="9.06" shape="881.03,1809.30 883.09,1810.81 884.03,1812.54 883.84,1814.51 882.53,1816.70"/>
    </edge>
    <edge id=":104554_13" function="internal">
        <lane id=":104554_13_0" index="0" disallow="tram rail_urban rail rail_electric rail_fast ship" speed="13.41" length="15.46" shape="881.03,1809.30 884.92,1811.40 887.49,1813.05 889.78,1815.05 892.85,1818.24"/>
        <lane id=":104554_13_1" index="1" disallow="tram rail_urban rail rail_electric rail_fast ship" speed="13.41" length="15.46" shape="882.54,1806.47 886.70,1808.73 889.45,1810.49 891.90,1812.64 895.18,1816.04"/>
    </edge>
    <edge id=":104554_15" function="internal">
        <lane id=":104554_15_0" index="0" disallow="tram rail_urban rail rail_electric rail_fast ship" speed="9.74" length="6.07" shape="882.54,1806.47 886.78,1807.95 888.35,1807.87"/>
    </edge>
    <edge id=":104554_16" function="internal">
        <lane id=":104554_16_0" index="0" disallow="tram rail_urban rail rail_electric rail_fast ship" speed="3.65" length="2.34" shape="882.54,1806.47 883.97,1806.33 884.70,1805.81"/>
    </edge>
    <edge id=":104554_22" function="internal">
        <lane id=":104554_22_0" index="0" disallow="tram rail_urban rail rail_electric rail_fast ship" speed="9.74" length="11.98" shape="888.35,1807.87 890.86,1807.76 894.78,1805.91 898.53,1802.40"/>
    </edge>
    <edge id=":104554_23" function="internal">