<?xml version="1.0" encoding="UTF-8"?>

<!-- generated on Sun Dec 13 13:38:20 2020 by Eclipse SUMO polyconvert Version 1.8.0
<configuration xmlns:xsi="http://www.w3.org/2001/XMLSchema-instance" xsi:noNamespaceSchemaLocation="http://sumo.dlr.de/xsd/polyconvertConfiguration.xsd">

    <input>
        <net-file value="osm.net.xml"/>
        <osm-files value="osm_bbox.osm.xml"/>
        <osm.keep-full-type value="true"/>
        <type-file value="/usr/local/opt/sumo/share/sumo/data/typemap/osmPolyconvert.typ.xml"/>
    </input>

    <output>
        <output-file value="osm.poly.xml"/>
    </output>

    <processing>
        <poi-layer-offset value="5"/>
    </processing>

    <report>
        <verbose value="true"/>
    </report>

</configuration>
-->

<additional xmlns:xsi="http://www.w3.org/2001/XMLSchema-instance" xsi:noNamespaceSchemaLocation="http://sumo.dlr.de/xsd/additional_file.xsd">
    <location netOffset="-302005.91,-5786591.50" convBoundary="-2088.40,-3915.17,6096.37,4730.64" origBoundary="0.071117,52.159424,0.191219,52.237710" projParameter="+proj=utm +zone=31 +ellps=WGS84 +datum=WGS84 +units=m +no_defs"/>

    <poly id="100322355" type="building.house" color="255,230,230" fill="1" layer="-1.00" shape="1362.140501,1522.669727 1369.691228,1522.948876 1369.925131,1516.780968 1362.374394,1516.501818 1362.140501,1522.669727"/>
    <poly id="100322359" type="building.house" color="255,230,230" fill="1" layer="-1.00" shape="1370.392499,1504.434033 1370.625964,1498.255006 1363.075200,1497.975854 1362.841744,1504.154882 1370.392499,1504.434033"/>
    <poly id="100322360" type="building.house" color="255,230,230" fill="1" layer="-1.00" shape="1370.158593,1510.601941 1370.392499,1504.434033 1362.841744,1504.154882 1362.607848,1510.322790 1370.158593,1510.601941"/>
    <poly id="100322361" type="building.house" color="255,230,230" fill="1" layer="-1.00" shape="1369.925131,1516.780968 1370.158593,1510.601941 1362.607848,1510.322790 1362.374394,1516.501818 1369.925131,1516.780968"/>
    <poly id="100322362" type="building.house" color="255,230,230" fill="1" layer="-1.00" shape="1361.847737,1431.426924 1369.334145,1430.427912 1370.103046,1436.177334 1362.616647,1437.176345 1361.847737,1431.426924"/>
    <poly id="100322363" type="building.house" color="255,230,230" fill="1" layer="-1.00" shape="1370.872388,1441.937876 1371.648118,1447.687027 1364.154905,1448.686307 1363.385998,1442.936886 1370.872388,1441.937876"/>
    <poly id="100322364" type="building.house" color="255,230,230" fill="1" layer="-1.00" shape="1370.103046,1436.177334 1370.872388,1441.937876 1363.385998,1442.936886 1362.616647,1437.176345 1370.103046,1436.177334"/>
    <poly id="100322365" type="building.house" color="255,230,230" fill="1" layer="-1.00" shape="1363.196582,1495.175711 1370.558054,1495.339879 1370.716379,1489.163837 1363.361287,1488.988278 1363.196582,1495.175711"/>
    <poly id="100322366" type="building.house" color="255,230,230" fill="1" layer="-1.00" shape="1363.849464,1470.448489 1364.061159,1462.343671 1371.424004,1462.541199 1373.430369,1462.584002 1373.212270,1470.700210 1371.210972,1470.612659 1363.849464,1470.448489"/>
    <poly id="100322368" type="building.house" color="255,230,230" fill="1" layer="-1.00" shape="1364.061159,1462.343671 1364.223898,1456.278821 1371.586753,1456.476349 1371.424004,1462.541199 1364.061159,1462.343671"/>
    <poly id="100322369" type="building.house" color="255,230,230" fill="1" layer="-1.00" shape="1371.046254,1476.800091 1371.210972,1470.612659 1363.849464,1470.448489 1363.684313,1476.624803 1371.046254,1476.800091"/>
    <poly id="100322370" type="building.house" color="255,230,230" fill="1" layer="-1.00" shape="1370.881095,1482.976404 1371.046254,1476.800091 1363.684313,1476.624803 1363.526436,1482.811964 1370.881095,1482.976404"/>
    <poly id="100322371" type="building.house" color="255,230,230" fill="1" layer="-1.00" shape="1370.716379,1489.163837 1370.881095,1482.976404 1363.526436,1482.811964 1363.361287,1488.988278 1370.716379,1489.163837"/>
    <poly id="100322372" type="building.house" color="255,230,230" fill="1" layer="-1.00" shape="1364.223898,1456.278821 1364.386639,1450.213971 1371.742672,1450.411771 1371.586753,1456.476349 1364.223898,1456.278821"/>
    <poly id="100322373" type="building.house" color="255,230,230" fill="1" layer="-1.00" shape="1345.527920,1525.234103 1351.933452,1525.447357 1352.134061,1519.303043 1345.728521,1519.089789 1345.527920,1525.234103"/>
    <poly id="100322378" type="building.house" color="255,230,230" fill="1" layer="-1.00" shape="1352.943340,1494.725516 1353.150786,1488.580931 1346.745207,1488.367674 1346.544599,1494.511988 1352.943340,1494.725516"/>
    <poly id="100322379" type="building.house" color="255,230,230" fill="1" layer="-1.00" shape="1352.742726,1500.869830 1352.943340,1494.725516 1346.544599,1494.511988 1346.337162,1500.656574 1352.742726,1500.869830"/>
    <poly id="100322383" type="building.house" color="255,230,230" fill="1" layer="-1.00" shape="1352.542114,1507.014144 1352.742726,1500.869830 1346.337162,1500.656574 1346.136558,1506.800888 1352.542114,1507.014144"/>
    <poly id="100322384" type="building.house" color="255,230,230" fill="1" layer="-1.00" shape="1352.334671,1513.158729 1352.542114,1507.014144 1346.136558,1506.800888 1345.935954,1512.945203 1352.334671,1513.158729"/>
    <poly id="100322385" type="building.house" color="255,230,230" fill="1" layer="-1.00" shape="1352.134061,1519.303043 1352.334671,1513.158729 1345.935954,1512.945203 1345.728521,1519.089789 1352.134061,1519.303043"/>
    <poly id="100322389" type="building.house" color="255,230,230" fill="1" layer="-1.00" shape="1346.906037,1485.699604 1353.372658,1485.899299 1353.566002,1479.744137 1347.092542,1479.544713 1346.906037,1485.699604"/>
    <poly id="100322391" type="building.house" color="255,230,230" fill="1" layer="-1.00" shape="1354.138770,1461.267806 1354.325289,1455.112916 1347.858628,1454.913218 1347.665287,1461.068380 1354.138770,1461.267806"/>
    <poly id="100322394" type="building.house" color="255,230,230" fill="1" layer="-1.00" shape="1353.945422,1467.422967 1354.138770,1461.267806 1347.665287,1461.068380 1347.479219,1467.234389 1353.945422,1467.422967"/>
    <poly id="100322395" type="building.house" color="255,230,230" fill="1" layer="-1.00" shape="1353.752517,1473.589247 1353.945422,1467.422967 1347.479219,1467.234389 1347.285880,1473.389551 1353.752517,1473.589247"/>
    <poly id="100322397" type="building.house" color="255,230,230" fill="1" layer="-1.00" shape="1353.566002,1479.744137 1353.752517,1473.589247 1347.285880,1473.389551 1347.092542,1479.544713 1353.566002,1479.744137"/>
    <poly id="100328247" type="building.yes" color="255,230,230" fill="1" layer="-1.00" shape="1400.092684,1463.607514 1391.019129,1465.126130 1379.775215,1468.501716 1380.767173,1475.044124 1382.402859,1474.711869 1383.363687,1478.059270 1384.461926,1477.804048 1385.526452,1477.561302 1402.184938,1473.736797 1401.799520,1470.923375 1400.092684,1463.607514"/>
    <poly id="100328256" type="building.yes" color="255,230,230" fill="1" layer="-1.00" shape="1382.595512,1523.483119 1382.739477,1529.346460 1384.062291,1537.156450 1420.382202,1525.367839 1417.455854,1514.046637 1409.120224,1516.571634 1409.948853,1520.380896 1410.124984,1521.198019 1403.321897,1523.205553 1402.916574,1522.130252 1401.823849,1522.351842 1401.606731,1521.536347 1391.285804,1525.064579 1390.936156,1523.151813 1382.595512,1523.483119"/>
    <poly id="100328263" type="building.house" color="255,230,230" fill="1" layer="-1.00" shape="1460.406615,1475.745732 1449.584423,1478.714628 1450.119604,1480.820491 1451.312741,1485.539632 1446.963416,1486.625550 1448.635972,1493.252307 1460.768367,1490.197973 1460.030185,1487.287188 1463.125922,1486.507201 1460.406615,1475.745732"/>
    <poly id="100328272" type="building.yes" color="255,230,230" fill="1" layer="-1.00" shape="1422.699578,1501.888670 1430.574082,1499.983393 1429.996295,1496.977149 1431.174297,1496.663086 1429.595974,1489.308704 1428.322778,1489.637684 1424.340228,1472.222086 1422.552516,1464.419415 1416.483541,1465.963439 1414.011396,1466.596185 1414.369814,1468.040862 1414.597737,1468.956158 1417.437304,1480.503540 1422.699578,1501.888670"/>
    <poly id="100328275" type="building.yes" color="255,230,230" fill="1" layer="-1.00" shape="1380.380813,1479.269157 1381.643402,1506.403776 1387.274369,1506.235785 1389.865534,1506.188545 1389.675943,1505.204906 1384.677076,1478.742125 1384.461926,1477.804048 1383.363687,1478.059270 1382.402859,1474.711869 1380.767173,1475.044124 1380.380813,1479.269157"/>
    <poly id="100328277" type="building.yes" color="255,230,230" fill="1" layer="-1.00" shape="1381.643402,1506.403776 1382.595512,1523.483119 1390.936156,1523.151813 1390.881655,1522.296449 1390.019174,1509.367548 1387.424860,1508.646479 1387.274369,1506.235785 1381.643402,1506.403776"/>
    <poly id="100334159" type="amenity.university" color="237,199,199" fill="1" layer="-1.00" shape="1383.832900,1539.649055 1381.756401,1528.539119 1378.463614,1465.624855 1455.425885,1441.976492 1463.039173,1475.017547 1447.680792,1479.191141 1448.293140,1481.861913 1441.766942,1483.435199 1444.685607,1495.770160 1418.688112,1503.384393 1424.179432,1526.230475 1383.832900,1539.649055"/>
    <poly id="100355792" type="building.house" color="255,230,230" fill="1" layer="-1.00" shape="1340.110118,1546.609168 1347.441173,1545.148541 1345.768768,1536.806746 1338.437700,1538.267375 1340.110118,1546.609168"/>
    <poly id="100355793" type="building.house" color="255,230,230" fill="1" layer="-1.00" shape="1347.441173,1545.148541 1354.765402,1543.688196 1353.099840,1535.346127 1345.768768,1536.806746 1347.441173,1545.148541"/>
    <poly id="100355794" type="building.house" color="255,230,230" fill="1" layer="-1.00" shape="1362.462482,1542.313280 1369.065521,1541.126616 1367.640865,1533.164760 1361.037374,1534.340307 1362.462482,1542.313280"/>
    <poly id="100355795" type="building.house" color="255,230,230" fill="1" layer="-1.00" shape="1375.669005,1539.951080 1382.272491,1538.775553 1380.840584,1530.802845 1374.237087,1531.978374 1375.669005,1539.951080"/>
    <poly id="100355796" type="building.house" color="255,230,230" fill="1" layer="-1.00" shape="1369.065521,1541.126616 1375.669005,1539.951080 1374.237087,1531.978374 1367.640865,1533.164760 1369.065521,1541.126616"/>
    <poly id="100355797" type="building.house" color="255,230,230" fill="1" layer="-1.00" shape="1485.576130,1500.349726 1493.163728,1498.110702 1490.492421,1489.073507 1487.790907,1489.960329 1482.897978,1491.312805 1485.576130,1500.349726"/>
    <poly id="100355798" type="building.house" color="255,230,230" fill="1" layer="-1.00" shape="1531.163043,1486.389905 1523.593699,1488.572460 1520.969380,1479.511113 1528.538737,1477.328554 1531.163043,1486.389905"/>
    <poly id="100355799" type="building.house" color="255,230,230" fill="1" layer="-1.00" shape="1538.732835,1484.218480 1531.163043,1486.389905 1528.538737,1477.328554 1536.108100,1475.146007 1538.732835,1484.218480"/>
    <poly id="100355800" type="building.house" color="255,230,230" fill="1" layer="-1.00" shape="1546.302191,1482.035949 1538.732835,1484.218480 1536.108100,1475.146007 1543.684742,1472.974319 1546.302191,1482.035949"/>
    <poly id="100355801" type="building.house" color="255,230,230" fill="1" layer="-1.00" shape="1553.871553,1479.853429 1546.302191,1482.035949 1543.684742,1472.974319 1551.254118,1470.791796 1553.871553,1479.853429"/>
    <poly id="100355802" type="building.house" color="255,230,230" fill="1" layer="-1.00" shape="1561.441363,1477.682040 1553.871553,1479.853429 1551.254118,1470.791796 1558.823941,1468.620403 1561.441363,1477.682040"/>
    <poly id="100355803" type="building.house" color="255,230,230" fill="1" layer="-1.00" shape="1569.010737,1475.499543 1561.441363,1477.682040 1558.823941,1468.620403 1566.393328,1466.437903 1569.010737,1475.499543"/>
    <poly id="100355804" type="building.house" color="255,230,230" fill="1" layer="-1.00" shape="1576.587389,1473.327906 1569.010737,1475.499543 1566.393328,1466.437903 1573.962722,1464.255414 1576.587389,1473.327906"/>
    <poly id="100355805" type="building.house" color="255,230,230" fill="1" layer="-1.00" shape="1584.156775,1471.145433 1576.587389,1473.327906 1573.962722,1464.255414 1581.532562,1462.084057 1584.156775,1471.145433"/>
    <poly id="100355806" type="building.house" color="255,230,230" fill="1" layer="-1.00" shape="1591.726168,1468.962972 1584.156775,1471.145433 1581.532562,1462.084057 1589.108799,1459.901321 1591.726168,1468.962972"/>
    <poly id="100355807" type="building.house" color="255,230,230" fill="1" layer="-1.00" shape="1599.296007,1466.791642 1591.726168,1468.962972 1589.108799,1459.901321 1596.678211,1457.718868 1599.296007,1466.791642"/>
    <poly id="100355808" type="building.house" color="255,230,230" fill="1" layer="-1.00" shape="1606.865411,1464.609204 1616.371958,1461.759677 1613.889048,1452.636997 1604.248069,1455.547545 1606.865411,1464.609204"/>
    <poly id="100355809" type="building.house" color="255,230,230" fill="1" layer="-1.00" shape="1620.557815,1460.346295 1626.130382,1458.877903 1623.708087,1449.730541 1618.135510,1451.198936 1620.557815,1460.346295"/>
    <poly id="100355810" type="building.house" color="255,230,230" fill="1" layer="-1.00" shape="1626.130382,1458.877903 1631.919341,1457.345248 1629.504329,1448.208732 1623.708087,1449.730541 1626.130382,1458.877903"/>
    <poly id="100355811" type="building.house" color="255,230,230" fill="1" layer="-1.00" shape="1631.919341,1457.345248 1637.728797,1455.811788 1635.313795,1446.675269 1629.504329,1448.208732 1631.919341,1457.345248"/>
    <poly id="100355812" type="building.house" color="255,230,230" fill="1" layer="-1.00" shape="1672.586480,1446.633408 1678.395958,1445.099996 1676.279645,1437.109832 1675.981470,1435.974579 1670.171540,1437.496874 1672.586480,1446.633408"/>
    <poly id="100355813" type="building.house" color="255,230,230" fill="1" layer="-1.00" shape="1666.776564,1448.155708 1672.586480,1446.633408 1670.171540,1437.496874 1664.362055,1439.030296 1666.776564,1448.155708"/>
    <poly id="100355814" type="building.house" color="255,230,230" fill="1" layer="-1.00" shape="1660.967092,1449.689134 1666.776564,1448.155708 1664.362055,1439.030296 1658.552573,1440.563724 1660.967092,1449.689134"/>
    <poly id="100355815" type="building.house" color="255,230,230" fill="1" layer="-1.00" shape="1655.157624,1451.222567 1660.967092,1449.689134 1658.552573,1440.563724 1652.742653,1442.086041 1655.157624,1451.222567"/>
    <poly id="100355816" type="building.house" color="255,230,230" fill="1" layer="-1.00" shape="1649.348159,1452.756007 1655.157624,1451.222567 1652.742653,1442.086041 1646.933178,1443.619483 1649.348159,1452.756007"/>
    <poly id="100355817" type="building.house" color="255,230,230" fill="1" layer="-1.00" shape="1643.538697,1454.289453 1649.348159,1452.756007 1646.933178,1443.619483 1641.123705,1445.152932 1643.538697,1454.289453"/>
    <poly id="100355818" type="building.house" color="255,230,230" fill="1" layer="-1.00" shape="1637.728797,1455.811788 1643.538697,1454.289453 1641.123705,1445.152932 1635.313795,1446.675269 1637.728797,1455.811788"/>
    <poly id="100355820" type="building.house" color="255,230,230" fill="1" layer="-1.00" shape="1678.395958,1445.099996 1676.279645,1437.109832 1675.981470,1435.974579 1678.054589,1435.458023 1677.241155,1432.026774 1680.436585,1432.378916 1681.008912,1434.561281 1682.155872,1434.326468 1683.576692,1440.996678 1683.106739,1443.810627 1678.395958,1445.099996"/>
    <poly id="100355821" type="building.residential" color="255,230,230" fill="1" layer="-1.00" shape="1660.525956,1390.615331 1660.765425,1373.020994 1637.346953,1372.713761 1637.241447,1380.747505 1622.975265,1380.556162 1622.879224,1387.620640 1621.010343,1387.594553 1620.884638,1396.843001 1629.455338,1396.959587 1629.429624,1398.898393 1635.734354,1398.982381 1635.714575,1400.553440 1643.792541,1400.667324 1643.912135,1391.953684 1641.974945,1391.930299 1641.995167,1390.370359 1660.525956,1390.615331"/>
    <poly id="100355822" type="amenity.place_of_worship" color="237,199,199" fill="1" layer="-1.00" shape="1677.995511,1417.753026 1697.136899,1412.349883 1696.062121,1408.539212 1691.853720,1409.730686 1687.428969,1394.080931 1698.227880,1391.035542 1695.896509,1382.797755 1692.628359,1383.718068 1691.219921,1378.740141 1686.839969,1376.296724 1674.437475,1379.795522 1674.485627,1375.661899 1661.282468,1375.706702 1661.385594,1383.308973 1663.072679,1383.409106 1667.950398,1400.644561 1676.353988,1398.273238 1680.730288,1413.735582 1677.144185,1414.746474 1677.995511,1417.753026"/>
    <poly id="100355822#1" type="building.church" color="255,230,230" fill="1" layer="-1.00" shape="1677.995511,1417.753026 1697.136899,1412.349883 1696.062121,1408.539212 1691.853720,1409.730686 1687.428969,1394.080931 1698.227880,1391.035542 1695.896509,1382.797755 1692.628359,1383.718068 1691.219921,1378.740141 1686.839969,1376.296724 1674.437475,1379.795522 1674.485627,1375.661899 1661.282468,1375.706702 1661.385594,1383.308973 1663.072679,1383.409106 1667.950398,1400.644561 1676.353988,1398.273238 1680.730288,1413.735582 1677.144185,1414.746474 1677.995511,1417.753026"/>
    <poly id="100355823" type="building.house" color="255,230,230" fill="1" layer="-1.00" shape="1493.163728,1498.110702 1500.758164,1495.871419 1498.086870,1486.834220 1490.492421,1489.073507 1493.163728,1498.110702"/>
    <poly id="100357131" type="building.house" color="255,230,230" fill="1" layer="-1.00" shape="1506.996484,1489.286978 1503.736588,1490.240505 1501.862497,1483.877880 1505.121955,1482.913232 1506.996484,1489.286978"/>
    <poly id="100357135" type="building.house" color="255,230,230" fill="1" layer="-1.00" shape="1507.917795,1492.847565 1519.658852,1489.586178 1516.882204,1479.617668 1505.121955,1482.913232 1506.996484,1489.286978 1507.917795,1492.847565"/>
    <poly id="100408075" type="building.university" color="255,230,230" fill="1" layer="-1.00" shape="1085.034203,728.308284 1087.191587,723.021613 1088.695927,719.208694 1084.715430,717.540578 1083.979999,719.351710 1083.301192,721.038085 1082.525410,722.694908 1081.886270,724.346295 1081.406634,725.534732 1080.938893,726.678148 1079.105431,731.506469 1080.066835,731.935974 1083.148491,733.027313 1085.034203,728.308284"/>
    <poly id="100408076" type="building.university" color="255,230,230" fill="1" layer="-1.00" shape="1092.326556,709.843062 1088.345611,708.163824 1089.095153,706.363269 1089.937891,704.325136 1091.161614,701.715012 1091.816437,700.285737 1092.999569,700.784385 1094.788153,701.537372 1095.727738,701.934338 1094.273334,705.110473 1092.326556,709.843062"/>
    <poly id="100414432" type="building.house" color="255,230,230" fill="1" layer="-1.00" shape="1358.088100,1557.577347 1368.931781,1555.843561 1370.386500,1564.906760 1366.062785,1565.601952 1365.720574,1563.187737 1358.984890,1564.134669 1358.331998,1559.583407 1358.088100,1557.577347"/>
    <poly id="100414433" type="building.house" color="255,230,230" fill="1" layer="-1.00" shape="1368.931781,1555.843561 1380.221453,1553.969579 1381.695113,1563.165669 1370.386500,1564.906760 1368.931781,1555.843561"/>
    <poly id="100414435" type="building.house" color="255,230,230" fill="1" layer="-1.00" shape="1233.925929,1586.533627 1241.490966,1589.239820 1239.599857,1594.504725 1232.027995,1591.798807 1233.925929,1586.533627"/>
    <poly id="100414439" type="building.house" color="255,230,230" fill="1" layer="-1.00" shape="1224.451536,1636.647051 1222.415693,1641.884309 1215.092453,1639.235356 1216.886557,1633.940885 1224.451536,1636.647051"/>
    <poly id="100414441" type="building.house" color="255,230,230" fill="1" layer="-1.00" shape="1226.349440,1631.381867 1224.451536,1636.647051 1216.886557,1633.940885 1218.777623,1628.675970 1226.349440,1631.381867"/>
    <poly id="100414442" type="building.house" color="255,230,230" fill="1" layer="-1.00" shape="1228.240517,1626.116956 1226.349440,1631.381867 1218.777623,1628.675970 1220.668695,1623.411056 1228.240517,1626.116956"/>
    <poly id="100414443" type="building.house" color="255,230,230" fill="1" layer="-1.00" shape="1230.131158,1620.840926 1228.240517,1626.116956 1220.668695,1623.411056 1222.566601,1618.145871 1230.131158,1620.840926"/>
    <poly id="100414444" type="building.house" color="255,230,230" fill="1" layer="-1.00" shape="1232.029075,1615.575745 1230.131158,1620.840926 1222.566601,1618.145871 1224.457239,1612.869839 1232.029075,1615.575745"/>
    <poly id="100414446" type="building.house" color="255,230,230" fill="1" layer="-1.00" shape="1233.920167,1610.310837 1232.029075,1615.575745 1224.457239,1612.869839 1226.348324,1607.604927 1233.920167,1610.310837"/>
    <poly id="100414447" type="building.house" color="255,230,230" fill="1" layer="-1.00" shape="1235.811262,1605.045929 1233.920167,1610.310837 1226.348324,1607.604927 1228.246245,1602.339745 1235.811262,1605.045929"/>
    <poly id="100414448" type="building.house" color="255,230,230" fill="1" layer="-1.00" shape="1237.708752,1599.769631 1235.811262,1605.045929 1228.246245,1602.339745 1230.137338,1597.074835 1237.708752,1599.769631"/>
    <poly id="100414450" type="building.house" color="255,230,230" fill="1" layer="-1.00" shape="1239.599857,1594.504725 1237.708752,1599.769631 1230.137338,1597.074835 1232.027995,1591.798807 1239.599857,1594.504725"/>
    <poly id="100414451" type="building.house" color="255,230,230" fill="1" layer="-1.00" shape="1215.092453,1639.235356 1213.068557,1644.772837 1220.398622,1647.421515 1222.415693,1641.884309 1215.092453,1639.235356"/>
    <poly id="100414454" type="building.house" color="255,230,230" fill="1" layer="-1.00" shape="1213.068557,1644.772837 1211.051940,1650.321166 1218.381998,1652.969841 1220.398622,1647.421515 1213.068557,1644.772837"/>
    <poly id="100417584" type="building.house" color="255,230,230" fill="1" layer="-1.00" shape="1279.904345,1701.920366 1280.488091,1702.320362 1284.807238,1705.300398 1280.972877,1710.386378 1277.512955,1708.196314 1277.028818,1707.892591 1279.904345,1701.920366"/>
    <poly id="100417590" type="building.house" color="255,230,230" fill="1" layer="-1.00" shape="1294.811614,1712.754197 1299.109165,1715.879880 1295.986356,1721.483270 1291.360452,1718.014264 1294.811614,1712.754197"/>
    <poly id="100417603" type="building.house" color="255,230,230" fill="1" layer="-1.00" shape="1262.885529,1701.650197 1258.954150,1700.336416 1261.102025,1693.958771 1265.032966,1695.261434 1268.745802,1696.929147 1266.423173,1703.213504 1262.885529,1701.650197"/>
    <poly id="100417605" type="building.house" color="255,230,230" fill="1" layer="-1.00" shape="1257.163809,1692.645262 1261.102025,1693.958771 1258.954150,1700.336416 1255.022769,1699.022638 1251.091385,1697.708863 1253.232421,1691.331485 1257.163809,1692.645262"/>
    <poly id="100417609" type="building.house" color="255,230,230" fill="1" layer="-1.00" shape="1249.301031,1690.017711 1253.232421,1691.331485 1251.091385,1697.708863 1247.160000,1696.395091 1243.228612,1695.081322 1245.369639,1688.703941 1249.301031,1690.017711"/>
    <poly id="100417611" type="building.house" color="255,230,230" fill="1" layer="-1.00" shape="1241.438245,1687.390173 1245.369639,1688.703941 1243.228612,1695.081322 1239.297221,1693.767556 1235.365829,1692.453793 1237.506848,1686.076408 1241.438245,1687.390173"/>
    <poly id="100417615" type="building.house" color="255,230,230" fill="1" layer="-1.00" shape="1233.575449,1684.762647 1237.506848,1686.076408 1235.365829,1692.453793 1231.434434,1691.140033 1227.503037,1689.826277 1229.644048,1683.448888 1233.575449,1684.762647"/>
    <poly id="100417619" type="building.house" color="255,230,230" fill="1" layer="-1.00" shape="1225.712645,1682.135133 1229.644048,1683.448888 1227.503037,1689.826277 1223.571638,1688.512523 1225.712645,1682.135133"/>
    <poly id="100417621" type="building.house" color="255,230,230" fill="1" layer="-1.00" shape="1221.781239,1680.821380 1225.712645,1682.135133 1223.571638,1688.512523 1219.640237,1687.198772 1215.708833,1685.885025 1217.849831,1679.507631 1221.781239,1680.821380"/>
    <poly id="100417624" type="building.house" color="255,230,230" fill="1" layer="-1.00" shape="1213.918421,1678.193885 1217.849831,1679.507631 1215.708833,1685.885025 1211.777869,1684.582400 1207.846461,1683.268658 1209.987009,1676.880142 1213.918421,1678.193885"/>
    <poly id="100417628" type="building.house" color="255,230,230" fill="1" layer="-1.00" shape="1206.055594,1675.566402 1209.987009,1676.880142 1207.846461,1683.268658 1203.915051,1681.954920 1199.983638,1680.641185 1202.124177,1674.252665 1206.055594,1675.566402"/>
    <poly id="100417631" type="building.house" color="255,230,230" fill="1" layer="-1.00" shape="1276.185128,1700.264037 1279.904345,1701.920366 1277.028818,1707.892591 1273.491181,1706.329277 1276.185128,1700.264037"/>
    <poly id="100417636" type="building.house" color="255,230,230" fill="1" layer="-1.00" shape="1269.960372,1704.765694 1266.423173,1703.213504 1268.745802,1696.929147 1272.465466,1698.596590 1276.185128,1700.264037 1273.491181,1706.329277 1269.960372,1704.765694"/>
    <poly id="100417642" type="building.house" color="255,230,230" fill="1" layer="-1.00" shape="1287.900060,1715.467836 1291.360452,1718.014264 1294.811614,1712.754197 1291.476825,1710.269595 1287.900060,1715.467836"/>
    <poly id="100417644" type="building.house" color="255,230,230" fill="1" layer="-1.00" shape="1284.432834,1712.921682 1287.900060,1715.467836 1291.476825,1710.269595 1288.142033,1707.784995 1284.807238,1705.300398 1280.972877,1710.386378 1284.432834,1712.921682"/>
    <poly id="100417647" type="building.house" color="255,230,230" fill="1" layer="-1.00" shape="1299.109165,1715.879880 1303.399438,1718.994719 1300.612253,1724.952281 1295.986356,1721.483270 1299.109165,1715.879880"/>
    <poly id="100419294" type="building.residential" color="255,230,230" fill="1" layer="-1.00" shape="1534.937809,2109.718259 1534.856826,2098.373148 1568.224164,2098.128860 1568.309969,2110.286756 1565.752393,2110.310317 1565.761264,2111.223176 1561.637370,2111.253228 1561.617377,2108.681439 1541.394931,2108.838262 1541.406734,2110.686490 1537.118915,2110.723070 1537.112455,2109.698748 1534.937809,2109.718259"/>
    <poly id="100421528" type="building.house" color="255,230,230" fill="1" layer="-1.00" shape="1254.144851,1732.356445 1250.545358,1736.809457 1243.633307,1731.248568 1244.534837,1730.177011 1237.947593,1724.870499 1240.737448,1721.563340 1254.144851,1732.356445"/>
    <poly id="100421529" type="building.house" color="255,230,230" fill="1" layer="-1.00" shape="1250.398011,1715.031813 1253.110974,1711.683171 1258.235194,1715.811678 1260.387237,1713.153543 1266.020500,1717.696157 1261.155491,1723.702925 1250.398011,1715.031813"/>
    <poly id="100421530" type="building.house" color="255,230,230" fill="1" layer="-1.00" shape="1206.541388,1789.130964 1211.311561,1783.495417 1204.153331,1777.420944 1202.116783,1779.885190 1195.567196,1774.321092 1192.896375,1777.523317 1206.541388,1789.130964"/>
    <poly id="100421531" type="building.house" color="255,230,230" fill="1" layer="-1.00" shape="1214.358042,1757.392213 1210.831530,1761.786672 1215.721045,1765.690595 1213.980371,1767.853516 1220.113630,1772.754847 1225.630744,1766.633011 1214.358042,1757.392213"/>
    <poly id="100421532" type="building.house" color="255,230,230" fill="1" layer="-1.00" shape="1180.524459,1805.500844 1181.589210,1804.233457 1175.180661,1798.775146 1177.919322,1795.559076 1191.504774,1806.701306 1187.568728,1811.290259 1180.524459,1805.500844"/>
    <poly id="100421533" type="building.house" color="255,230,230" fill="1" layer="-1.00" shape="1243.633307,1731.248568 1242.718558,1732.331788 1236.131314,1727.025279 1233.569932,1730.056076 1247.147456,1740.998313 1250.545358,1736.809457 1243.633307,1731.248568"/>
    <poly id="100421534" type="building.house" color="255,230,230" fill="1" layer="-1.00" shape="1177.919322,1795.559076 1180.182542,1792.773975 1186.633402,1798.264021 1188.403586,1796.155599 1195.420778,1802.124290 1191.504774,1806.701306 1177.919322,1795.559076"/>
    <poly id="100421535" type="building.house" color="255,230,230" fill="1" layer="-1.00" shape="1233.569932,1730.056076 1230.858519,1733.271027 1237.446203,1738.588648 1236.746703,1739.407167 1243.821604,1745.106350 1247.147456,1740.998313 1233.569932,1730.056076"/>
    <poly id="100421536" type="building.house" color="255,230,230" fill="1" layer="-1.00" shape="1153.016702,1827.041947 1150.908455,1830.110455 1157.877890,1834.878220 1156.958806,1836.195503 1164.076091,1841.068764 1167.096154,1836.672133 1153.016702,1827.041947"/>
    <poly id="100421537" type="building.house" color="255,230,230" fill="1" layer="-1.00" shape="1188.403586,1796.155599 1189.533795,1794.985842 1184.344575,1790.770898 1187.143198,1787.686090 1199.160320,1797.754756 1195.420778,1802.124290 1188.403586,1796.155599"/>
    <poly id="100421538" type="building.house" color="255,230,230" fill="1" layer="-1.00" shape="1236.746703,1739.407167 1235.466235,1740.928125 1228.878994,1735.621625 1226.468095,1738.479392 1239.636900,1749.638320 1243.821604,1745.106350 1236.746703,1739.407167"/>
    <poly id="100421539" type="building.house" color="255,230,230" fill="1" layer="-1.00" shape="1156.958806,1836.195503 1155.936182,1837.661683 1150.099198,1833.673000 1147.693555,1837.176535 1160.654651,1846.038200 1164.076091,1841.068764 1156.958806,1836.195503"/>
    <poly id="100421540" type="building.house" color="255,230,230" fill="1" layer="-1.00" shape="1239.636900,1749.638320 1236.293905,1754.003190 1229.318372,1748.222110 1230.004650,1747.415252 1223.482181,1742.017090 1226.468095,1738.479392 1239.636900,1749.638320"/>