<?xml version="1.0" encoding="UTF-8"?>

<!-- generated on Sun Dec 13 13:38:22 2020 by Eclipse SUMO duarouter Version 1.8.0
<configuration xmlns:xsi="http://www.w3.org/2001/XMLSchema-instance" xsi:noNamespaceSchemaLocation="http://sumo.dlr.de/xsd/duarouterConfiguration.xsd">

    <input>
        <net-file value="/Users/Matteo/2020-12-13-13-38-03/osm.net.xml"/>
        <route-files value="/Users/Matteo/2020-12-13-13-38-03/osm.passenger.trips.xml"/>
    </input>

    <output>
        <output-file value="routes.rou.xml"/>
        <alternatives-output value="routes.rou.alt.xml"/>
    </output>

    <time>
        <begin value="0"/>
        <end value="3600"/>
    </time>

    <report>
        <no-warnings value="true"/>
        <ignore-errors value="true"/>
        <no-step-log value="true"/>
    </report>

</configuration>
-->

<routes xmlns:xsi="http://www.w3.org/2001/XMLSchema-instance" xsi:noNamespaceSchemaLocation="http://sumo.dlr.de/xsd/routes_file.xsd">
    <vType id="veh_passenger" vClass="passenger"/>
    <vehicle id="veh0" type="veh_passenger" depart="0.00" departLane="best">
        <route edges="3986838 3986839 3986849 54621757#2 54621757#3 41805243#0 4241930#2 4241930#5 4241930#8 4241930#9 4241930#10 4241930#13 4241930#15 4241930#17 4241930#19 819481582 108165636#0 143755556#0 -143755556#0"/>
    </vehicle>
    <vehicle id="veh1" type="veh_passenger" depart="1.93" departLane="best">
        <route edges="-4008131#0 -513369695#2 -513369695#0 -4008086#2 -4008086#1 -4008080#2 -4008080#0 58535222#0 58535222#2 31152417 3994616#0 3994616#1 3994616#2 3994620 -42737813#3 -42737813#2 -42737813#1 -42737813#0 -42737812#4 -42737812#2 -3994615#2 3994613#0 3994613#1 4679012 53239201#0 27421490#0 3992968#0 53162729#0 49062879#0 70296973 3994576#0 -3994577 -3994572#0"/>
    </vehicle>
    <vehicle id="veh2" type="veh_passenger" depart="3.85" departLane="best">
        <route edges="3994607#1 -3994607#3 -3994607#0 42737813#2 42737813#3 3994621 3994616#4 3994616#5 3994616#6 3994616#7 3994616#0 3994625 -3994624#4 -3994624#2 3994623 272542814#0 272542814#1 521543343 521543342#0 521543348 3030266#0 3030266#4 478680608 54624716 54621757#2 54621757#3 41805243#0 4241930#2 4241930#5 4241930#8 4241930#9 4241930#10 4241930#13 4241930#15 3987076#0"/>
    </vehicle>
    <vehicle id="veh3" type="veh_passenger" depart="5.78" departLane="best">
        <route edges="4679011#0 -161910752#2 3997872#3 3993089#1 3993089#2 3993089#3 53456163#0 51824379#0 -874663932#3 -874663932#2 -874663932#1 -874663932#0 3384051#0 3384051#1 -4678084#0 -613602842 -54621757#4 -54621757#2 -54621757#0 -478680608 272542810 3030381#1 54624701#0 54624701#5 54624701#6 3987029 -3987028 -4678100#1 -50928338 -3128389#3 3128391#0 -3128391#0"/>
    </vehicle>
    <vehicle id="veh4" type="veh_passenger" depart="7.71" departLane="best">
        <route edges="108508527#6 -108508527#6 -108508527#5 4076097#1 128541167#2 128541167#5 128541167#6 136023186#0 349325745#0 141699657#0 -36885220#1 431083497#0 148815865#5 431083496 -3992970#2 -3992971 -4604368 104019045#0 3992990 53580498 3986774#0 53142667#0 53142667#2 137139906 567520627 567520626 3031558#0 54327430 143760220#0 -143760220#2"/>
    </vehicle>
    <vehicle id="veh5" type="veh_passenger" depart="9.64" departLane="best">
        <route edges="-3994561#4 3994561#2 -3792618#4 70296974#0 148815866#0 148815866#2 148815866#3 -49062879#1 -53162729#1 3993008#0 37632864#0 3993009#1 37632867#0 386908773 291493302#0 3994614#0 3994615#0 42737812#1 42737812#3 42737813#0 3994646 24885144 -3994624#2 3994623 272542814#0 272542814#1 521543343 4188078#0 504632125#1 504632124 504632123#0 54563619#0 834716415#2 3875398#0 3875398#4 3875395#0 3875395#2 3875393 598230405 -598230405 24746129"/>
    </vehicle>
    <vehicle id="veh6" type="veh_passenger" depart="11.56" departLane="best">
        <route edges="-143755556#12 -143755556#10 -143755556#8 -143755556#5 -143755556#1 -143755556#0 -819481581#1 -819481582 -4241930#20 -4241930#18 143954797#0 143954797#3 143954797#5 143954797#6 3987074#0 3987074#1 -3987074#6"/>
    </vehicle>
    <vehicle id="veh7" type="veh_passenger" depart="13.49" departLane="best">
        <route edges="3986931#2 3986931#4 -96896688#1 54564019#1 54564019#2 54563629#0 521543344 83632354#0 521543343 521543342#0 521543348 3030266#0 3030266#4 478680608 54624716 54621757#2 54621757#3 613602842 4678084#0 -52614856#6 -3384051#0 3384051#0"/>
    </vehicle>
    <vehicle id="veh8" type="veh_passenger" depart="15.42" departLane="best">
        <route edges="-3994566#5 -49062879#1 -53162729#1 3993008#0 37632864#0 3993009#1 37632867#0 386908773 291493302#0 3994614#0 3994615#0 42737812#1 42737812#3 42737813#0 3994646 24885144 -3994624#2 3994623 272542814#0 272542814#1 521543343 4188078#0 504632125#1 504632124 504632123#0 54563619#0 469738546#0 118626534#0 -3875409#10 -3875409#8 3875409#2"/>
    </vehicle>
    <vehicle id="veh9" type="veh_passenger" depart="17.34" departLane="best">
        <route edges="4076093#0 4076093#2 4076096#0 4076096#1 128541167#5 128541167#6 136023186#0 349325745#0 387369933 141699666#0 3792617#0 3792616#0 -3373129#1 3792612#0 53601936#0 3812661#0 3812661#2 143469261 3993089#3 53456163#0 51824379#0 -874663932#3 -874663932#2 -874663932#1 -874663932#0 3384051#0 3384051#1 4241930#0 4241930#2 4241930#5 4241930#8 4241930#9 4241930#10 4241930#13 4241930#15 4241930#17 4241930#19 819481582 108165636#0 143755556#0 143755556#1 143755555#0 3959610 53195538 53195536 4678144 53195535 53195543 23794291#1 50839810 3959588 3959567#2 3959568 -824240993#10 -824240993#6 11099280#0 -11099280#4"/>
    </vehicle>
    <vehicle id="veh10" type="veh_passenger" depart="19.27" departLane="best">
        <route edges="4076027#3 -4076027#4 -4076027#2 -386808585#5 -386808585#4 136023194#0 349325745#0 387369933 141699666#0 3792617#0 3792616#0 -3373129#1 3792612#0 53601936#0 -4604369 53662295 143469263#0 -143724342#1 -40801389 3993065#2"/>
    </vehicle>
    <vehicle id="veh11" type="veh_passenger" depart="21.20" departLane="best">
        <route edges="-45075887 44961507#0 386808585#10 421621267#0 421621267#3 421621267#5 421621267#6 421621267#7 386808584 3993009#1 37632867#0 386908773 291493302#0 4679012 5236366#0 5236364 421620854 567520626 3986770#0 3986767#0 3986766#0 3986763 3986762#0 3986762#1 3986762#2 -3986762#2"/>
    </vehicle>
    <vehicle id="veh12" type="veh_passenger" depart="23.12" departLane="best">
        <route edges="54624698#3 521543346 521543345#0 521543344 83632354#0 521543343 521543342#0 521543348 3030266#0 3030266#4 478680608 54624716 54621757#2 54621757#3 41805243#0 4241930#2 4241930#5 4241930#8 4241930#9 4235421#0 3241007#0 3241002#0 3241020#1 43868017 -43868017"/>
    </vehicle>
    <vehicle id="veh13" type="veh_passenger" depart="25.05" departLane="best">
        <route edges="4235426#1 -4235426#2 -4235426#0 -4276099#9 -4276099#8 -4276099#4 -4276099#3 -4276099#2 3261872#0 874663932#1 874663932#2 874663932#3 -51824379#1 -33167970#7 3993089#4 3993089#1 143469262#0 -3812661#5 -3812661#1 -53601936#3 -862944906#8 3373129#0 -3792616#4 3792615#0 3792615#7 -387369933 386908772#0 3905471#0"/>
    </vehicle>
    <vehicle id="veh14" type="veh_passenger" depart="26.98" departLane="best">
        <route edges="4076090 -44221475#1 4076097#0 4076097#1 128541167#2 128541167#5 128541167#6 136023186#0 3905471#0 53580502#0 386808585#0 386808585#5 386808585#7 386808585#10 421621267#0 421621267#3 421621267#5 421621267#6 421621267#7 386808584 3993009#1 37632867#0 386908773 291493302#0 3994599#0"/>
    </vehicle>
    <vehicle id="veh15" type="veh_passenger" depart="28.91" departLane="best">
        <route edges="3241002#1 -3241002#1 3241020#1 -3128570#2 4066407 513367070 -4276099#4 -4276099#3 -4276099#2 3261872#0 874663932#1 874663932#2 874663932#3 -51824379#1 -33167970#7 3993089#4 3993089#1 143469262#0 -3812661#5 -3812661#1 -53601936#3 -862944906#8 -3792618#7 -3792618#4 70296974#0"/>
    </vehicle>
    <vehicle id="veh16" type="veh_passenger" depart="30.83" departLane="best">
        <route edges="-54621757#4 -54621757#2 -3986849 770073322#0 770073322#1 -147495426#2 -147495426#0 147495410#0 -147495415#2 -147495415#0 -3986762#0 -478653343#1 -3986766#3 31159940#2 567520629#0 3986773 -53142667#3 -53142667#1 -3986774#4 -53580498 -3992990 27421491#0 -3992986#4 -3992986#2 51558675 362280437#0"/>
    </vehicle>
    <vehicle id="veh18" type="veh_passenger" depart="34.69" departLane="best">
        <route edges="4275819 -4275819 3993102#3 3993100#3 3993100#7 3993100#12 24448524#0 143724342#0 143724342#2 53662296 4604369 -53601936#3 -862944906#8 3373129#0 -3792616#4 3792615#0 3792615#7 -387369933 386908772#0 3905471#0 53580502#0 386808585#0 386808585#5"/>
    </vehicle>
    <vehicle id="veh19" type="veh_passenger" depart="36.61" departLane="best">
        <route edges="3993089#2 3993089#3 53456163#0 51824379#0 -874663932#3 -874663932#2 -874663932#1 -874663932#0 3384051#0 3384051#1 3986759#1 54621756#0 147495436#0 147495435#1 -147495435#2"/>
    </vehicle>
    <vehicle id="veh20" type="veh_passenger" depart="38.54" departLane="best">
        <route edges="-3994576#0 -148815866#2 -148815866#1 -70296974#4 3792618#0 -3994561#4 3994562 3792615#0 3792615#7 -387369933 386908772#0 3905471#0 4679009 53580501 42871027#0 4076093#0 -4076093#1"/>
    </vehicle>
    <vehicle id="veh21" type="veh_passenger" depart="40.47" departLane="best">
        <route edges="-31152413#1 3994619 3994616#6 3994616#7 3994616#0 3994616#1 3994616#2 3994620 -42737813#3 -42737813#2 -42737813#1 -42737813#0 -42737812#4 -42737812#2 -3994615#2 3994613#0 3994613#1 4679012 53239201#0 27421490#0 3993005#0 37632864#0 -386808584 -421621267#8 -421621267#6 -421621267#5 4678941 -3994585#1"/>
    </vehicle>
    <vehicle id="veh22" type="veh_passenger" depart="42.40" departLane="best">
        <route edges="-3384051#0 3384051#0 3384051#1 -4678084#0 -613602842 -54621757#4 -54621757#2 -54621757#0 -478680608 272542810 54624698#3 521543346 521543345#0 521543344 54563658#0 3994622 272542815#0 3994624#0 3994624#3 31152416 3994616#2 3994616#3 3994616#4 3994616#5 3994616#6 3994617 -58535222#5 4008135#0 4008135#2 4008135#3 -4008135#3"/>
    </vehicle>
    <vehicle id="veh23" type="veh_passenger" depart="44.32" departLane="best">
        <route edges="3986788#0 147493289#0 3384861 5137551#0 37793114 3986777#0 53142666#0 3993115#0 53142667#2 137139906 567520627 -31159939#9 -5236364"/>
    </vehicle>
    <vehicle id="veh24" type="veh_passenger" depart="46.25" departLane="best">
        <route edges="-53195538 53195538 53195536 43868212#1 143755563#0 -143755556#5 -143755556#1 -143755556#0 -819481581#1 -819481582 -4241930#20 -4241930#18 -4241930#15 -4241930#13 -4241930#12 -4241930#9 -4241930#8 -4241930#7 -4241930#4 -4241930#1 -52614856#6 -3384051#0 3261872#0 874663932#1 874663932#2 874663932#3 3993100#0 3993100#3 3993100#7 3993100#12 143476477#0 3993079#0 -3993079#2"/>
    </vehicle>
    <vehicle id="veh25" type="veh_passenger" depart="48.18" departLane="best">
        <route edges="-4008110#1 4008110#0 -4008109#1 -4008109#0 -42287830#3 -4008122#2 -4008122#1 -4008080#2 -4008080#0 58535222#0 58535222#2 31152417 3994616#0 3994616#1 3994616#2 3994620 -42737813#3 -42737813#2 -42737813#1 -42737813#0 -42737812#4 -42737812#2 -3994615#2 3994613#0 3994613#1 4679012 53239201#0"/>
    </vehicle>
    <vehicle id="veh26" type="veh_passenger" depart="50.10" departLane="best">
        <route edges="3986900 -3986900 -3994652#3 -3994652#1 -3994652#0 -3994651#1 -3994651#0 -3994649#0 -513368397#2 -513368397#1 24885144 -3994624#2 3994623 272542814#0 272542814#1 521543343 521543342#0 521543348 3030266#0 3030266#4 478680608 54624716 54621757#2 54621757#3 41805243#0 4241930#2 4241930#5 4241930#8 4241930#9 4241930#10 4241930#13 4241930#15 4241930#17 4241930#19 819481582 108165636#0 143755556#0 143755556#1 143755555#0 3959610 53195538 53195536 4678144 53195535 53195543 23794291#1 50839810 3959588 3959567#2 3959567#3 3959567#4 3959569"/>
    </vehicle>
    <vehicle id="veh27" type="veh_passenger" depart="52.03" departLane="best">
        <route edges="-3986931#3 3986931#2 3986931#4 -3031602 -96896691#1 -36884541#5 -36884541#3 -36884541#1 -3031558#2 3986770#0 567520625 567520629#0 567520628 567520627 -31159939#9 -5236364 5236365#0 27421490#0 3993005#0 37632864#0 -386808584 -421621267#8 3994587#0"/>
    </vehicle>
    <vehicle id="veh28" type="veh_passenger" depart="53.96" departLane="best">
        <route edges="841372001#1 3994569 45075888#0 421621267#3 421621267#5 421621267#6 421621267#7 386808584 3993009#1 37632867#0 386908773 291493302#0 4679012 5236366#0 5236364 421620854 567520626 3986770#0 3986767#0 3986766#0 3986763 3986762#0 147495415#0 147495415#1 -147495410#1 147495426#0 147495426#1 -770073322#1 -770073322#0 -147495400#2 -147495400#1 -3986836 3986846#1"/>
    </vehicle>
    <vehicle id="veh29" type="veh_passenger" depart="55.88" departLane="best">
        <route edges="36884541#4 96896691#1 96896690 -96896688#1 54564019#1 54564019#2 54563629#0 521543344 83632354#0 521543343 4188078#0 504632125#1 504632124 367718571#0 367718571#1 367718571#2 367718571#4 143691351 3987159#2"/>
    </vehicle>
    <vehicle id="veh30" type="veh_passenger" depart="57.81" departLane="best">
        <route edges="42287830#7 -42287830#8 -42287830#6 -42287830#4 -42287830#3 -4008122#2 -4008122#1 4008086#0"/>
    </vehicle>
    <vehicle id="veh31" type="veh_passenger" depart="59.74" departLane="best">
        <route edges="-3994576#4 -45075889#1 3994569 45075888#0 421621267#3 421621267#5 421621267#6 421621267#7 386808584 3993009#1 37632867#0 386908773 291493302#0 4679012 5236366#0 5236364 421620854 567520626 3031558#0 54327430 36884541#2 36884541#4 -3986930#2 -143760231#1 -143760231#0"/>
    </vehicle>
    <vehicle id="veh32" type="veh_passenger" depart="61.67" departLane="best">
        <route edges="-4241930#15 -4241930#13 -4241930#12 -4241930#9 -4241930#8 -4241930#7 -4241930#4 -4241930#1 -4678084#0 -613602842 -54621757#4 -54621757#2 -54621757#0 -478680608 272542810 54624698#3 521543346 521543345#0 521543344 54563658#0 3994622 272542815#0 3994624#0 3994624#3 31152416 3994616#2 3994616#3 3994616#4 3994616#5 3994616#6 3994617 -58535222#5 -58535222#1 4008080#0 4008080#1 4008086#0 4008086#2 513369695#0 -4008114#1"/>
    </vehicle>
    <vehicle id="veh33" type="veh_passenger" depart="63.59" departLane="best">
        <route edges="-3993097#1 -3993098#7 -3993098#4 3993066#0 55217185#0 55217185#5 147495430#0 3986745 3986744 3986751#0 -3986857#3 -3986857#2 -3986857#1 -3986851 -3986762#1 -3986762#0 -478653343#1 -3986766#3 31159940#2 567520629#0 567520628 567520627 567520626 3031558#0 54327430"/>
    </vehicle>
    <vehicle id="veh34" type="veh_passenger" depart="65.52" departLane="best">
        <route edges="44221475#0 -44221475#1 4076097#0 4076097#1 128541167#2 128541167#5 128541167#6 136023186#0 349325745#0 387369933 141699666#0 3792617#0 3792616#0 -3373129#1 3792612#0 53601936#0 3812661#0 3812661#2 143469261 3993089#3 53456163#0 51824379#0 -874663932#3 -874663932#2 -874663932#1 -874663932#0 3384051#0 3384051#1 4241930#0 4241930#2 4241930#5 4241930#8 4241930#9 4241930#10 4241930#13 -4241930#13"/>
    </vehicle>
    <vehicle id="veh35" type="veh_passenger" depart="67.45" departLane="best">
        <route edges="3987016#1 3987016#3 -3987006#2 -3987006#0 -3030381#2 54624698#3 521543346 521543345#0 521543344 54563658#0 3994622 272542815#0 3994624#0 3994624#3 31152416 3994616#2 3994616#3 3994616#4 3994616#5 3994616#6 3994617 -58535222#5 -58535222#1 4008080#0 4008080#1 4008122#0 -24493053#2 65696403#0 65696403#3 -65696403#3"/>
    </vehicle>
    <vehicle id="veh36" type="veh_passenger" depart="69.37" departLane="best">
        <route edges="52048371 -52048371 -3994599#2 4679012 5236366#0 5236364 421620854 567520626 3986770#0 3986767#0 3986766#0 3986763 3986762#0 3986762#1 3986851 3986857#1 3986857#2 3986857#3 -64759007#2 -165503468#0 -3986759#1 4241930#0 4241930#2 4241930#5 4241930#8 4241930#9 4241930#10 4241930#13 4241930#15 4241930#17 4241930#19 819481582 108165636#0 143755556#0 143755556#1 143755556#3 143755556#7 143755556#9 143755556#12 143755562#0"/>
    </vehicle>
    <vehicle id="veh37" type="veh_passenger" depart="71.30" departLane="best">
        <route edges="-4008106 -4008073 -4008080#0 58535222#0 58535222#2 31152417 3994616#0 3994616#1 3994616#2 3994620 -42737813#3 -42737813#2 -42737813#1 3994646 513368397#0 -42737811#3 3994644#0 -3994643#0"/>
    </vehicle>
    <vehicle id="veh38" type="veh_passenger" depart="73.23" departLane="best">
        <route edges="37632868#0 3993011#0 386908773 291493302#0 3994614#0 3994615#0 42737812#1 42737812#3 42737813#0 42737813#1 42737813#2 42737813#3 3994621 3994616#4 3994616#5 3994616#6 3994617 -58535222#5 -58535222#1 4008080#0 4008080#1 4008086#0 -4008086#1"/>
    </vehicle>
    <vehicle id="veh39" type="veh_passenger" depart="75.16" departLane="best">
        <route edges="3875326#5 -3875326#7 -3875326#4 -3875326#3 37849665#0 37849665#1 37849665#2 37849665#4 834716409#2 367718570#1 521543348 3030266#0 3030381#1 54624701#0 54624701#5 54624701#6 3987029 -3987028 -4678100#1 -50928338 50928338"/>
    </vehicle>
    <vehicle id="veh40" type="veh_passenger" depart="77.08" departLane="best">
        <route edges="-819481581#1 -819481582 -4241930#20 -4241930#18 -4241930#15 -4241930#13 -4241930#12 -4241930#9 -4241930#8 -4241930#7 -4241930#4 -4241930#1 3986759#1 54621756#0 165503468#1 172879649#0 -3986762#4 -3986762#3 -3986762#2 -3986762#1 -3986762#0 -478653343#1 -3986766#3 31159940#2 567520629#0 3986773 -53142667#3 -53142667#1 -3986774#4 -53580498 3993126 9042753#0 -169507718 -148815860#2 24443713#0 3992970#0 -431083496 -148815865#7 -148815880#4 -148815880#3 -148815880#2 3792617#0 -3994562"/>
    </vehicle>
    <vehicle id="veh41" type="veh_passenger" depart="79.01" departLane="best">
        <route edges="884149320#0 -4678126 3987016#3 -3987006#2 -3987006#0 -3030381#2 3030266#4 478680608 54624716 54621757#2 54621757#3 41805243#0 4241930#2 4241930#5 4241930#8 4241930#9 4241930#10 4241930#13 4241930#15 4241930#17 4241930#19 819481582 108165636#0 143755556#0 143755556#1 143755555#0 3959610 53195538 53195536 4678144 53195535 53195543 23794291#1 50839810 3959588 3959567#2 3959568 -824240993#10 -824240993#6 -824240993#4 -251921812#3 251921812#3"/>
    </vehicle>
    <vehicle id="veh42" type="veh_passenger" depart="80.94" departLane="best">
        <route edges="-3217814#2 -4241930#20 -4241930#18 -4241930#15 -4241930#13 -4241930#12 -4241930#9 -4241930#8 -4241930#7 -4241930#4 -4241930#1 -52614856#6 -3384051#0 3261872#0 874663932#1 874663932#2 874663932#3 3993100#0 3993100#3 3993100#7 3993100#12 24448524#0 143724342#0 148215570#0 148215554#0 -148215554#1"/>
    </vehicle>
    <vehicle id="veh43" type="veh_passenger" depart="82.86" departLane="best">
        <route edges="-37849665#3 37849665#2 37849665#4 834716409#2 367718570#1 521543348 521543347#0 521543346 54563632 54563631#0 -54564019#1 -54564019#0 -3031602 -96896691#1 -36884541#5 -36884541#3 -36884541#1 -3031558#2 3986770#0 3986767#0 3986766#0 3986763 3986762#0 3986762#1 3986762#2 3986762#3"/>
    </vehicle>
    <vehicle id="veh44" type="veh_passenger" depart="84.79" departLane="best">
        <route edges="4008131#1 -4008131#2 -4008131#0 -513369695#2 -513369695#0 -4008086#2 -4008086#1 -4008080#2 -4008080#0 58535222#0 58535222#2 31152417 3994616#0 3994616#1 3994616#2 3994620 -42737813#3 -42737813#2 -42737813#1 -42737813#0 -42737812#4 -42737812#2 -3994615#2 3994613#0 3994613#1 4679012 53239201#0 27421490#0 3993005#0 37632864#0 -386808584 -421621267#8 -421621267#6 -421621267#5 -421621267#3 -421621267#2 -386808585#13 -386808585#8 -386808585#5 -386808585#4 136023194#0 136023185#1 349325744#1 -128541167#6 -128541167#5 -128541167#4 -4076097#1 108508527#4 108508527#6 108508527#7"/>
    </vehicle>
    <vehicle id="veh45" type="veh_passenger" depart="86.72" departLane="best">
        <route edges="-24448524#1 -3993100#13 -3993100#11 -3993100#6 -3993100#2 -874663932#3 -874663932#2 -874663932#1 -874663932#0 3384051#0 3384051#1 -4678084#0 -613602842 -54621757#4 -54621757#2 -54621757#0 -478680608 272542810 3030381#1 54624701#0 54624701#5 54624701#6 -54624701#7"/>
    </vehicle>
    <vehicle id="veh46" type="veh_passenger" depart="88.64" departLane="best">
        <route edges="877688059 -877688059 -204609638#0 54564019#2 54563629#0 521543344 83632354#0 521543343 521543342#0 521543348 3030266#0 3030381#1 54624701#0 54624701#5 54624701#6 3987029 -3987028 -4678100#1 -50928338 3128389#4"/>
    </vehicle>
    <vehicle id="veh47" type="veh_passenger" depart="90.57" departLane="best">
        <route edges="586117612#0 -586117612#1 -3993079#2 -762083762#1 -3993100#13 -3993100#11 -3993100#6 -3993100#2 -874663932#3 -874663932#2 -874663932#1 -874663932#0 4276099#0 4276099#3 4276099#4 4276099#6 4276099#9"/>
    </vehicle>
    <vehicle id="veh48" type="veh_passenger" depart="92.50" departLane="best">
        <route edges="-128541167#1 128541167#0 128541167#2 128541167#5 128541167#6 136023186#0 3905471#0 53580502#0 386808585#0 -3994578#2 -3994578#1 -3994578#0 -3994575#0 -3994574#1 -3994574#0 3994574#0"/>
    </vehicle>
    <vehicle id="veh49" type="veh_passenger" depart="94.43" departLane="best">
        <route edges="-4008110#1 4008110#0 -4008109#1 -4008109#0 42287830#4 42287830#5 272542814#1 521543343 521543342#0 521543348 521543347#0 521543346 54563632 54563631#0 -54564019#1 -54564019#0 -3031602 -96896691#1 -36884541#5 -36884541#3 -36884541#1 -3031558#2 3986770#0 3986767#0 3986766#0 3986763 3986762#0 3986762#1 3986851"/>
    </vehicle>
    <vehicle id="veh50" type="veh_passenger" depart="96.35" departLane="best">
        <route edges="-3792618#4 70296974#0 148815866#0 148815866#2 148815866#3 -49062879#1 -53162729#1 3993008#0 37632864#0 3993009#1 37632867#0 386908773 291493302#0 3994614#0 3994615#0 42737812#1 42737812#3 42737813#0 42737813#1 42737813#2 42737813#3 3994621 3994616#4 3994616#5 3994616#6 3994617 -58535222#5 -58535222#1 4008080#0 4008080#1 4008086#0 4008086#2 4008123#0 4008123#3 135673339"/>
    </vehicle>
    <vehicle id="veh51" type="veh_passenger" depart="98.28" departLane="best">
        <route edges="143755556#1 -143755556#1 -143755556#0 -819481581#1 -819481582 -4241930#20 -4241930#18 -4241930#15 -4241930#13 -4241930#12 -4241930#9 -4241930#8 -4241930#7 -4241930#4 -4241930#1 -4678084#0 -613602842 -54621757#4 -54621757#2 -54621757#0 -478680608 272542810 3030381#1 54624701#0 54624701#5 54624701#6 54624701#8"/>
    </vehicle>
    <vehicle id="veh53" type="veh_passenger" depart="102.13" departLane="best">
        <route edges="24493048#2 -135673340#1 24493053#0 24493053#2 4008122#2 4008122#3 42287830#4 42287830#5 272542814#1 521543343 521543342#0 521543348 3030266#0 3030381#1 54624701#0 54624701#5 3987025 -3987025"/>
    </vehicle>
    <vehicle id="veh55" type="veh_passenger" depart="105.99" departLane="best">
        <route edges="-4196778 4196772#3 4196772#4 4196779 -143755556#1 -143755556#0 -819481581#1 -819481582 -4241930#20 -4241930#18 -4241930#15 -4241930#13 -4241930#12 -4241930#9 -4241930#8 -4241930#7 -4241930#4 -4241930#1 -4678084#0 -613602842 -54621757#4 -54621757#2 -3986849 -147495400#2 -3986837 3986844#1"/>
    </vehicle>
    <vehicle id="veh56" type="veh_passenger" depart="107.92" departLane="best">
        <route edges="3959567#2 3959567#3 3959567#4 3959567#5 3959567#0 126358294 50839810 3959582#0 132619141 43868212#0 43868212#1 143755563#0 -143755556#5 -143755556#1 -143755556#0 -819481581#1 -819481582 -4241930#20 -4241930#18 -4241930#15 -4241930#13 -4241930#12 -4241930#9 -4241930#8 -4241930#7 -4241930#4 -4241930#1 -4678084#0 -613602842 -54621757#4 -54621757#2 -54621757#0 -478680608 272542810 3030381#1 3987006#0 -336284491 -397798570"/>
    </vehicle>
    <vehicle id="veh57" type="veh_passenger" depart="109.84" departLane="best">
        <route edges="3994643#2 -3994651#0 -3994649#0 -513368397#2 -513368397#1 24885144 -3994624#2 3994623 272542814#0 272542814#1 521543343 521543342#0 521543348 3030266#0 3030266#4 478680608 54624716 54621757#2 54621757#3 41805243#0 4241930#2 4241930#5 4241930#8 4241930#9 4235421#0 3241037#0 3241037#1"/>
    </vehicle>
    <vehicle id="veh58" type="veh_passenger" depart="111.77" departLane="best">
        <route edges="4008086#0 -4008086#1 4008122#0 4008122#2 4008122#3 42287830#4 42287830#5 272542814#1 521543343 521543342#0 521543348 3030266#0 3030381#1 54624701#0 -3987021#1 -3987021#0 3128389#9"/>
    </vehicle>
    <vehicle id="veh59" type="veh_passenger" depart="113.70" departLane="best">
        <route edges="-101836399 -4196773#0 4196772#1 4196772#2 4196772#3 4196772#4 4196779 -143755556#1 -143755556#0 -819481581#1 -819481582 -4241930#20 -4241930#18 -4241930#15 -4241930#13 -4241930#12 -4241930#9 -4241930#8 -4241930#7 -4241930#4 -4241930#1 -4678084#0 -613602842 -54621757#4 -54621757#2 -54621757#0 -478680608 272542810 54624698#3 521543346 521543345#0 521543344 54563658#0 3994622 272542815#0 3994624#0 3994624#3 31152416 3994616#2 3994620 -42737813#3 -42737813#2"/>
    </vehicle>
    <vehicle id="veh60" type="veh_passenger" depart="115.62" departLane="best">
        <route edges="-135692152 -24493051#2 -24493051#1 -135673340#1 24493053#0 24493053#2 4008122#2 4008122#3 42287830#4 42287830#5 272542814#1 521543343 521543342#0 521543348 3030266#0 3030266#4 478680608 54624716 54621757#2 54621757#3 41805243#0 4241930#2 4241930#5 4241930#8 4241930#9 4241930#10 4241930#13 4241930#15 4241930#17 4241930#19 819481582 108165636#0 143755556#0 143755556#1 143755555#0 3959610 53195538 53195536"/>
    </vehicle>
    <vehicle id="veh61" type="veh_passenger" depart="117.55" departLane="best">
        <route edges="45075888#0 421621267#3 421621267#5 421621267#6 421621267#7"/>
    </vehicle>
    <vehicle id="veh62" type="veh_passenger" depart="119.48" departLane="best">
        <route edges="-42287830#3 -4008122#2 -4008122#1 -4008080#2 -4008080#0 58535222#0 58535222#2 31152417 3994616#0 3994616#1 3994616#2 3994620 -42737813#3 -42737813#2 -42737813#1 -42737813#0 -42737812#4 -42737812#2 -3994615#2 3994613#0 3994613#1 4679012 53239201#0 27421490#0 3992968#0 53162729#0 49062879#0 70296973 -148815866#2 -148815866#1 -70296974#4 -3992970#2 -3992971 -4604368 169507718 -169507718"/>
    </vehicle>
    <vehicle id="veh63" type="veh_passenger" depart="121.40" departLane="best">
        <route edges="45075887 45075888#0 421621267#3 421621267#5 421621267#6 421621267#7 386808584 3993009#1 37632867#0 386908773 291493302#0 3994614#0 3994615#0 42737812#1 42737812#3 42737813#0 3994646 24885144 -3994624#2 3994623 272542814#0 272542814#1 521543343 521543342#0 521543348 521543347#0 521543346 521543345#0 521543344 54563658#0"/>
    </vehicle>
    <vehicle id="veh64" type="veh_passenger" depart="123.33" departLane="best">
        <route edges="-3128389#6 -3987025 -54624701#5 -54624701#4 -3030381#2 54624698#3 521543346 54563632 54563631#0 -54564019#1 -54564019#0 -3031602 -96896691#1 -36884541#5 -36884541#3 -36884541#1 -3031558#2 3986770#0 567520625 567520629#0 3986773 -53142667#3 -53142667#1 -3986774#4 -53580498 3993126 9042753#0 -169507718 -148815860#2 24443713#0 3992970#0 -431083496 -148815865#7 -148815880#4 148815880#4"/>
    </vehicle>
    <vehicle id="veh65" type="veh_passenger" depart="125.26" departLane="best">
        <route edges="-24493053#1 24493053#0 24493053#2 -4008122#1 -4008080#2 -4008080#0 58535222#0 58535222#2 31152417 3994616#0 3994616#1 3994616#2 3994620 -42737813#3 -42737813#2 -42737813#1 3994646 513368397#0 -42737811#3 3994644#0"/>
    </vehicle>
    <vehicle id="veh66" type="veh_passenger" depart="127.19" departLane="best">
        <route edges="3994648 -3994648 -513368397#1 24885144 -3994624#2 3994623 272542814#0 272542814#1 521543343 4188078#0 504632125#1 504632124 504632123#0 54563619#0 834716415#2 3875398#0 3875398#4 3875398#5 -3875398#8"/>
    </vehicle>
    <vehicle id="veh67" type="veh_passenger" depart="129.11" departLane="best">
        <route edges="147495423#0 -147495423#2 -478653343#1 -3986766#3 31159940#2 567520629#0 3986773 -53142667#3 -53142667#1 -3986774#4 -53580498 3993126 9042753#0 -169507718 -148815860#2 24443713#0 3992970#0 -431083496 -148815865#7 -148815865#4 -96896693#2 141699668#0 386908772#0 349325744#0 349325744#1"/>
    </vehicle>
    <vehicle id="veh68" type="veh_passenger" depart="131.04" departLane="best">
        <route edges="-4008106 -4008073 -4008080#0 58535222#0 58535222#2 31152417 3994616#0 3994616#1 3994616#2 3994620 -42737813#3 -42737813#2 -42737813#1 -42737813#0 -42737812#4 -42737812#2 -3994615#2 3994613#0 3994613#1 4679012 53239201#0 27421490#0 3993005#0 37632864#0 -386808584 -421621267#8 -421621267#6 -421621267#5 -421621267#3 -421621267#2 -386808585#13 -44961507#2 44961507#0"/>
    </vehicle>
    <vehicle id="veh69" type="veh_passenger" depart="132.97" departLane="best">
        <route edges="11099894 -11099894 3987016#1 3987016#3 -3987006#2 -3987006#0 -3030381#2 3030266#4 478680608 54624716 54621757#2 54621757#3 613602842 4678084#0 -52614856#6 -3384051#0 3261872#0 874663932#1 3993096#0 -3993098#7"/>
    </vehicle>
    <vehicle id="veh70" type="veh_passenger" depart="134.89" departLane="best">
        <route edges="3241037#1 143954796#0 -4241930#13 -4241930#12 -4241930#9 -4241930#8 -4241930#7 -4241930#4 -4241930#1 3986759#1 54621756#0 165503468#1 172879649#0 -3986762#4 -3986762#3 -3986762#2 -3986762#1 -3986762#0 -478653343#1 -3986766#3 31159940#2 567520629#0 567520628 567520627 -31159939#9 -5236364 5236365#0 27421490#0 3993005#0 37632864#0 3993009#1 37632867#0 386908773 291493302#0 3994599#0"/>
    </vehicle>
    <vehicle id="veh71" type="veh_passenger" depart="136.82" departLane="best">
        <route edges="-3987141#0 3987141#0 -3987142 3128570#0 3128570#1 3128570#2 -3241020#2 3241002#1 4235420 -4235420"/>
    </vehicle>
    <vehicle id="veh72" type="veh_passenger" depart="138.75" departLane="best">