<?xml version="1.0" encoding="UTF-8"?>
<!-- generated on 2020-12-17 11:50:05.066675 by $Id$ via randomTrips.py
  options: <doubleminus>net-file /home/nicholas/Documents/TrafficEmu/grid_simulation/grid.net.xml <doubleminus>output-trip-file /home/nicholas/Documents/TrafficEmu/random_trip_generator/veh_passenger.trips.xml <doubleminus>route-file /home/nicholas/Documents/TrafficEmu/random_trip_generator/veh_passenger.rou.xml <doubleminus>begin 0.0 <doubleminus>end 3600.0 <doubleminus>allow-fringe <doubleminus>fringe-factor 10.0 <doubleminus>validate <doubleminus>additional-files /home/nicholas/Documents/TrafficEmu/vehicle_generator/veh.add.xml <doubleminus>trip-attributes type="veh_passenger" <doubleminus>edge-permission passenger <doubleminus>period 10.0 <doubleminus>binomial 1
-->
<routes xmlns:xsi="http://www.w3.org/2001/XMLSchema-instance" xsi:noNamespaceSchemaLocation="http://sumo.dlr.de/xsd/routes_file.xsd">
    <vType accel="2.6" decel="4.5" emissionClass="HBEFA3/PC_G_EU4" id="veh_passenger" maxSpeed="55.55" speedFactor="1.00" vClass="passenger">
    </vType>
    <trip id="0" depart="25.00" from="e12to11" to="e16to15" type="veh_passenger"/>
    <trip id="1" depart="48.00" from="e12to11" to="e10to5" type="veh_passenger"/>
    <trip id="2" depart="49.00" from="e2to1" to="e15to14" type="veh_passenger"/>
    <trip id="3" depart="60.00" from="e1to2" to="e8to7" type="veh_passenger"/>
    <trip id="4" depart="67.00" from="e5to6" to="e8to15" type="veh_passenger"/>
    <trip id="5" depart="72.00" from="e7to14" to="e16to9" type="veh_passenger"/>
    <trip id="6" depart="75.00" from="e3to4" to="e9to16" type="veh_passenger"/>
    <trip id="7" depart="80.00" from="e1to2" to="e3to6" type="veh_passenger"/>
    <trip id="8" depart="89.00" from="e6to5" to="e15to16" type="veh_passenger"/>
    <trip id="9" depart="95.00" from="e9to16" to="e12to11" type="veh_passenger"/>
    <trip id="10" depart="102.00" from="e14to15" to="e6to7" type="veh_passenger"/>
    <trip id="11" depart="140.00" from="e13to14" to="e8to7" type="veh_passenger"/>
    <trip id="12" depart="160.00" from="e7to12" to="e14to15" type="veh_passenger"/>
    <trip id="13" depart="163.00" from="e7to12" to="e13to14" type="veh_passenger"/>
    <trip id="14" depart="171.00" from="e5to2" to="e2to3" type="veh_passenger"/>
    <trip id="15" depart="179.00" from="e8to7" to="e6to11" type="veh_passenger"/>
    <trip id="16" depart="182.00" from="e3to6" to="e13to12" type="veh_passenger"/>
    <trip id="17" depart="204.00" from="e5to10" to="e12to11" type="veh_passenger"/>
    <trip id="18" depart="205.00" from="e1to2" to="e9to4" type="veh_passenger"/>
    <trip id="19" depart="216.00" from="e11to6" to="e6to3" type="veh_passenger"/>
    <trip id="20" depart="225.00" from="e16to15" to="e8to7" type="veh_passenger"/>
    <trip id="21" depart="244.00" from="e1to2" to="e6to7" type="veh_passenger"/>
    <trip id="22" depart="252.00" from="e7to14" to="e9to8" type="veh_passenger"/>
    <trip id="23" depart="265.00" from="e11to10" to="e14to7" type="veh_passenger"/>
    <trip id="24" depart="269.00" from="e12to7" to="e9to8" type="veh_passenger"/>
    <trip id="25" depart="272.00" from="e6to11" to="e16to15" type="veh_passenger"/>
    <trip id="26" depart="273.00" from="e12to11" to="e9to16" type="veh_passenger"/>
    <trip id="27" depart="290.00" from="e7to12" to="e7to12" type="veh_passenger"/>
    <trip id="28" depart="295.00" from="e7to6" to="e13to14" type="veh_passenger"/>
    <trip id="29" depart="299.00" from="e9to16" to="e8to9" type="veh_passenger"/>
    <trip id="30" depart="311.00" from="e11to12" to="e14to15" type="veh_passenger"/>
    <trip id="31" depart="312.00" from="e11to12" to="e8to3" type="veh_passenger"/>
    <trip id="32" depart="315.00" from="e5to6" to="e12to13" type="veh_passenger"/>
    <trip id="33" depart="321.00" from="e7to6" to="e7to12" type="veh_passenger"/>
    <trip id="34" depart="326.00" from="e15to14" to="e7to12" type="veh_passenger"/>
    <trip id="35" depart="331.00" from="e9to8" to="e15to14" type="veh_passenger"/>
    <trip id="36" depart="332.00" from="e13to12" to="e13to12" type="veh_passenger"/>
    <trip id="37" depart="335.00" from="e9to16" to="e12to7" type="veh_passenger"/>
    <trip id="38" depart="343.00" from="e11to10" to="e1to2" type="veh_passenger"/>
    <trip id="39" depart="346.00" from="e2to5" to="e11to6" type="veh_passenger"/>
    <trip id="40" depart="352.00" from="e15to14" to="e16to9" type="veh_passenger"/>
    <trip id="41" depart="356.00" from="e8to9" to="e13to14" type="veh_passenger"/>
    <trip id="42" depart="369.00" from="e7to8" to="e8to15" type="veh_passenger"/>
    <trip id="43" depart="377.00" from="e4to3" to="e4to1" type="veh_passenger"/>
    <trip id="44" depart="381.00" from="e6to11" to="e4to9" type="veh_passenger"/>
    <trip id="45" depart="384.00" from="e12to11" to="e11to12" type="veh_passenger"/>
    <trip id="46" depart="412.00" from="e4to1" to="e8to3" type="veh_passenger"/>
    <trip id="47" depart="413.00" from="e11to6" to="e14to7" type="veh_passenger"/>
    <trip id="48" depart="423.00" from="e15to16" to="e16to9" type="veh_passenger"/>
    <trip id="49" depart="437.00" from="e7to14" to="e15to16" type="veh_passenger"/>
    <trip id="50" depart="483.00" from="e2to5" to="e16to9" type="veh_passenger"/>
    <trip id="51" depart="484.00" from="e7to6" to="e3to2" type="veh_passenger"/>
    <trip id="52" depart="492.00" from="e3to2" to="e5to6" type="veh_passenger"/>
    <trip id="53" depart="496.00" from="e7to14" to="e5to10" type="veh_passenger"/>
    <trip id="54" depart="506.00" from="e3to2" to="e12to11" type="veh_passenger"/>
    <trip id="55" depart="525.00" from="e6to5" to="e6to3" type="veh_passenger"/>
    <trip id="56" depart="528.00" from="e5to10" to="e8to15" type="veh_passenger"/>
    <trip id="57" depart="530.00" from="e8to7" to="e4to9" type="veh_passenger"/>
    <trip id="58" depart="540.00" from="e4to9" to="e4to3" type="veh_passenger"/>
    <trip id="59" depart="542.00" from="e8to3" to="e13to12" type="veh_passenger"/>
    <trip id="60" depart="549.00" from="e4to3" to="e11to6" type="veh_passenger"/>
    <trip id="61" depart="556.00" from="e3to8" to="e8to7" type="veh_passenger"/>
    <trip id="62" depart="557.00" from="e1to4" to="e3to8" type="veh_passenger"/>
    <trip id="63" depart="558.00" from="e6to7" to="e8to3" type="veh_passenger"/>
    <trip id="64" depart="561.00" from="e9to4" to="e16to15" type="veh_passenger"/>
    <trip id="65" depart="564.00" from="e6to11" to="e5to10" type="veh_passenger"/>
    <trip id="66" depart="576.00" from="e2to1" to="e10to5" type="veh_passenger"/>
    <trip id="67" depart="581.00" from="e11to10" to="e2to5" type="veh_passenger"/>
    <trip id="68" depart="586.00" from="e12to7" to="e7to6" type="veh_passenger"/>
    <trip id="69" depart="596.00" from="e12to13" to="e11to10" type="veh_passenger"/>
    <trip id="70" depart="597.00" from="e5to10" to="e13to12" type="veh_passenger"/>
    <trip id="71" depart="603.00" from="e16to9" to="e11to6" type="veh_passenger"/>
    <trip id="72" depart="618.00" from="e7to12" to="e14to15" type="veh_passenger"/>
    <trip id="73" depart="619.00" from="e15to16" to="e9to16" type="veh_passenger"/>
    <trip id="74" depart="625.00" from="e13to12" to="e14to15" type="veh_passenger"/>
    <trip id="75" depart="627.00" from="e8to7" to="e15to14" type="veh_passenger"/>
    <trip id="76" depart="628.00" from="e6to11" to="e5to2" type="veh_passenger"/>
    <trip id="77" depart="630.00" from="e10to11" to="e12to13" type="veh_passenger"/>
    <trip id="78" depart="640.00" from="e12to13" to="e6to5" type="veh_passenger"/>
    <trip id="79" depart="644.00" from="e3to6" to="e16to9" type="veh_passenger"/>
    <trip id="80" depart="645.00" from="e5to2" to="e16to9" type="veh_passenger"/>
    <trip id="81" depart="658.00" from="e14to13" to="e3to6" type="veh_passenger"/>
    <trip id="82" depart="661.00" from="e8to3" to="e16to15" type="veh_passenger"/>
    <trip id="83" depart="674.00" from="e3to2" to="e8to9" type="veh_passenger"/>
    <trip id="84" depart="683.00" from="e4to3" to="e16to9" type="veh_passenger"/>
    <trip id="85" depart="694.00" from="e5to10" to="e1to4" type="veh_passenger"/>
    <trip id="86" depart="724.00" from="e12to7" to="e12to13" type="veh_passenger"/>
    <trip id="87" depart="730.00" from="e3to6" to="e8to15" type="veh_passenger"/>
    <trip id="88" depart="736.00" from="e15to16" to="e11to12" type="veh_passenger"/>
    <trip id="89" depart="741.00" from="e11to10" to="e9to4" type="veh_passenger"/>
    <trip id="90" depart="748.00" from="e10to5" to="e13to12" type="veh_passenger"/>
    <trip id="91" depart="759.00" from="e2to5" to="e7to12" type="veh_passenger"/>
    <trip id="92" depart="763.00" from="e2to3" to="e10to5" type="veh_passenger"/>
    <trip id="93" depart="779.00" from="e3to8" to="e15to8" type="veh_passenger"/>
    <trip id="94" depart="784.00" from="e5to10" to="e3to4" type="veh_passenger"/>
    <trip id="95" depart="793.00" from="e8to9" to="e7to8" type="veh_passenger"/>
    <trip id="96" depart="823.00" from="e16to15" to="e3to6" type="veh_passenger"/>
    <trip id="97" depart="825.00" from="e7to6" to="e7to14" type="veh_passenger"/>
    <trip id="98" depart="836.00" from="e6to7" to="e2to1" type="veh_passenger"/>
    <trip id="99" depart="837.00" from="e12to7" to="e6to3" type="veh_passenger"/>
    <trip id="100" depart="847.00" from="e3to8" to="e3to2" type="veh_passenger"/>
    <trip id="101" depart="848.00" from="e13to14" to="e1to4" type="veh_passenger"/>
    <trip id="102" depart="875.00" from="e8to3" to="e6to3" type="veh_passenger"/>
    <trip id="103" depart="879.00" from="e9to4" to="e6to11" type="veh_passenger"/>
    <trip id="104" depart="880.00" from="e9to16" to="e13to12" type="veh_passenger"/>
    <trip id="105" depart="881.00" from="e7to12" to="e9to4" type="veh_passenger"/>
    <trip id="106" depart="895.00" from="e5to2" to="e5to6" type="veh_passenger"/>
    <trip id="107" depart="905.00" from="e12to11" to="e16to15" type="veh_passenger"/>
    <trip id="108" depart="911.00" from="e6to11" to="e4to3" type="veh_passenger"/>
    <trip id="109" depart="926.00" from="e5to6" to="e10to5" type="veh_passenger"/>
    <trip id="110" depart="930.00" from="e11to12" to="e3to2" type="veh_passenger"/>
    <trip id="111" depart="931.00" from="e2to5" to="e12to11" type="veh_passenger"/>
    <trip id="112" depart="932.00" from="e16to9" to="e16to9" type="veh_passenger"/>
    <trip id="113" depart="940.00" from="e13to12" to="e12to13" type="veh_passenger"/>
    <trip id="114" depart="945.00" from="e2to5" to="e6to11" type="veh_passenger"/>
    <trip id="115" depart="961.00" from="e10to11" to="e7to6" type="veh_passenger"/>
    <trip id="116" depart="971.00" from="e6to5" to="e11to10" type="veh_passenger"/>
    <trip id="117" depart="981.00" from="e12to7" to="e7to12" type="veh_passenger"/>
    <trip id="118" depart="986.00" from="e4to9" to="e7to14" type="veh_passenger"/>
    <trip id="119" depart="997.00" from="e1to4" to="e3to2" type="veh_passenger"/>
    <trip id="120" depart="1002.00" from="e1to4" to="e2to3" type="veh_passenger"/>
    <trip id="121" depart="1004.00" from="e14to15" to="e1to2" type="veh_passenger"/>
    <trip id="122" depart="1008.00" from="e5to2" to="e6to11" type="veh_passenger"/>
    <trip id="123" depart="1012.00" from="e5to10" to="e8to7" type="veh_passenger"/>
    <trip id="124" depart="1024.00" from="e8to9" to="e7to8" type="veh_passenger"/>
    <trip id="125" depart="1035.00" from="e13to12" to="e14to13" type="veh_passenger"/>
    <trip id="126" depart="1044.00" from="e8to7" to="e12to11" type="veh_passenger"/>
    <trip id="127" depart="1055.00" from="e6to5" to="e3to8" type="veh_passenger"/>
    <trip id="128" depart="1065.00" from="e6to5" to="e7to8" type="veh_passenger"/>
    <trip id="129" depart="1094.00" from="e2to5" to="e6to3" type="veh_passenger"/>
    <trip id="130" depart="1113.00" from="e6to5" to="e13to12" type="veh_passenger"/>
    <trip id="131" depart="1127.00" from="e7to12" to="e7to14" type="veh_passenger"/>
    <trip id="132" depart="1129.00" from="e11to12" to="e14to7" type="veh_passenger"/>
    <trip id="133" depart="1147.00" from="e11to10" to="e11to6" type="veh_passenger"/>
    <trip id="134" depart="1153.00" from="e13to14" to="e7to14" type="veh_passenger"/>
    <trip id="135" depart="1164.00" from="e1to2" to="e12to7" type="veh_passenger"/>
    <trip id="136" depart="1167.00" from="e9to4" to="e10to5" type="veh_passenger"/>
    <trip id="137" depart="1181.00" from="e1to4" to="e8to7" type="veh_passenger"/>
    <trip id="138" depart="1193.00" from="e14to15" to="e6to5" type="veh_passenger"/>
    <trip id="139" depart="1203.00" from="e13to14" to="e8to3" type="veh_passenger"/>
    <trip id="140" depart="1212.00" from="e7to14" to="e8to7" type="veh_passenger"/>
    <trip id="141" depart="1215.00" from="e7to8" to="e12to7" type="veh_passenger"/>
    <trip id="142" depart="1225.00" from="e12to11" to="e6to5" type="veh_passenger"/>
    <trip id="143" depart="1233.00" from="e3to4" to="e11to12" type="veh_passenger"/>
    <trip id="144" depart="1239.00" from="e6to3" to="e8to9" type="veh_passenger"/>
    <trip id="145" depart="1244.00" from="e13to12" to="e6to11" type="veh_passenger"/>
    <trip id="146" depart="1264.00" from="e4to3" to="e15to8" type="veh_passenger"/>
    <trip id="147" depart="1275.00" from="e6to11" to="e13to14" type="veh_passenger"/>
    <trip id="148" depart="1276.00" from="e7to6" to="e3to2" type="veh_passenger"/>
    <trip id="149" depart="1289.00" from="e2to3" to="e16to15" type="veh_passenger"/>
    <trip id="150" depart="1307.00" from="e12to13" to="e16to15" type="veh_passenger"/>
    <trip id="151" depart="1310.00" from="e1to4" to="e8to3" type="veh_passenger"/>
    <trip id="152" depart="1322.00" from="e3to4" to="e8to15" type="veh_passenger"/>
    <trip id="153" depart="1333.00" from="e7to14" to="e8to9" type="veh_passenger"/>
    <trip id="154" depart="1346.00" from="e12to13" to="e5to2" type="veh_passenger"/>
    <trip id="155" depart="1367.00" from="e15to14" to="e1to4" type="veh_passenger"/>
    <trip id="156" depart="1385.00" from="e8to3" to="e4to1" type="veh_passenger"/>
    <trip id="157" depart="1395.00" from="e5to10" to="e14to7" type="veh_passenger"/>
    <trip id="158" depart="1405.00" from="e14to7" to="e7to8" type="veh_passenger"/>
    <trip id="159" depart="1412.00" from="e16to9" to="e12to11" type="veh_passenger"/>
    <trip id="160" depart="1413.00" from="e7to14" to="e2to3" type="veh_passenger"/>
    <trip id="161" depart="1414.00" from="e3to2" to="e14to13" type="veh_passenger"/>
    <trip id="162" depart="1456.00" from="e15to8" to="e3to4" type="veh_passenger"/>
    <trip id="163" depart="1459.00" from="e2to3" to="e13to12" type="veh_passenger"/>
    <trip id="164" depart="1460.00" from="e6to7" to="e1to4" type="veh_passenger"/>
    <trip id="165" depart="1469.00" from="e8to15" to="e12to13" type="veh_passenger"/>
    <trip id="166" depart="1485.00" from="e5to2" to="e6to11" type="veh_passenger"/>
    <trip id="167" depart="1494.00" from="e5to2" to="e1to4" type="veh_passenger"/>
    <trip id="168" depart="1527.00" from="e15to14" to="e12to13" type="veh_passenger"/>
    <trip id="169" depart="1531.00" from="e5to6" to="e12to7" type="veh_passenger"/>
    <trip id="170" depart="1535.00" from="e10to11" to="e11to12" type="veh_passenger"/>
    <trip id="171" depart="1539.00" from="e4to1" to="e15to16" type="veh_passenger"/>
    <trip id="172" depart="1541.00" from="e12to7" to="e7to8" type="veh_passenger"/>
    <trip id="173" depart="1557.00" from="e5to10" to="e2to1" type="veh_passenger"/>
    <trip id="174" depart="1560.00" from="e6to11" to="e5to10" type="veh_passenger"/>
    <trip id="175" depart="1563.00" from="e6to3" to="e3to2" type="veh_passenger"/>
    <trip id="176" depart="1586.00" from="e8to9" to="e6to7" type="veh_passenger"/>
    <trip id="177" depart="1611.00" from="e14to7" to="e15to16" type="veh_passenger"/>
    <trip id="178" depart="1625.00" from="e4to3" to="e7to8" type="veh_passenger"/>
    <trip id="179" depart="1628.00" from="e15to8" to="e7to12" type="veh_passenger"/>
    <trip id="180" depart="1646.00" from="e3to6" to="e15to16" type="veh_passenger"/>
    <trip id="181" depart="1647.00" from="e6to7" to="e15to16" type="veh_passenger"/>
    <trip id="182" depart="1653.00" from="e3to8" to="e11to6" type="veh_passenger"/>
    <trip id="183" depart="1657.00" from="e11to10" to="e3to6" type="veh_passenger"/>
    <trip id="184" depart="1662.00" from="e11to6" to="e11to10" type="veh_passenger"/>
    <trip id="185" depart="1664.00" from="e7to8" to="e14to7" type="veh_passenger"/>
    <trip id="186" depart="1672.00" from="e3to2" to="e4to9" type="veh_passenger"/>
    <trip id="187" depart="1684.00" from="e15to16" to="e16to15" type="veh_passenger"/>
    <trip id="188" depart="1707.00" from="e14to15" to="e14to15" type="veh_passenger"/>
    <trip id="189" depart="1757.00" from="e15to16" to="e6to11" type="veh_passenger"/>
    <trip id="190" depart="1774.00" from="e4to1" to="e5to10" type="veh_passenger"/>
    <trip id="191" depart="1788.00" from="e3to2" to="e2to5" type="veh_passenger"/>
    <trip id="192" depart="1814.00" from="e4to9" to="e12to11" type="veh_passenger"/>
    <trip id="193" depart="1828.00" from="e9to4" to="e6to11" type="veh_passenger"/>
    <trip id="194" depart="1831.00" from="e3to4" to="e5to10" type="veh_passenger"/>
    <trip id="195" depart="1832.00" from="e12to13" to="e12to7" type="veh_passenger"/>
    <trip id="196" depart="1858.00" from="e6to7" to="e5to6" type="veh_passenger"/>
    <trip id="197" depart="1868.00" from="e7to14" to="e6to5" type="veh_passenger"/>
    <trip id="198" depart="1869.00" from="e10to5" to="e1to4" type="veh_passenger"/>
    <trip id="199" depart="1874.00" from="e10to11" to="e3to4" type="veh_passenger"/>
    <trip id="200" depart="1891.00" from="e9to8" to="e5to2" type="veh_passenger"/>
    <trip id="201" depart="1914.00" from="e11to10" to="e5to6" type="veh_passenger"/>
    <trip id="202" depart="1915.00" from="e5to2" to="e8to9" type="veh_passenger"/>
    <trip id="203" depart="1917.00" from="e3to8" to="e3to4" type="veh_passenger"/>
    <trip id="204" depart="1919.00" from="e6to3" to="e4to1" type="veh_passenger"/>
    <trip id="205" depart="1922.00" from="e4to3" to="e13to14" type="veh_passenger"/>
    <trip id="206" depart="1924.00" from="e5to6" to="e7to6" type="veh_passenger"/>
    <trip id="207" depart="1930.00" from="e12to13" to="e7to6" type="veh_passenger"/>
    <trip id="208" depart="1931.00" from="e11to12" to="e4to9" type="veh_passenger"/>
    <trip id="209" depart="1941.00" from="e2to3" to="e5to10" type="veh_passenger"/>
    <trip id="210" depart="1978.00" from="e8to9" to="e8to3" type="veh_passenger"/>
    <trip id="211" depart="1988.00" from="e15to16" to="e4to9" type="veh_passenger"/>
    <trip id="212" depart="1990.00" from="e14to7" to="e15to8" type="veh_passenger"/>
    <trip id="213" depart="2005.00" from="e4to1" to="e2to3" type="veh_passenger"/>
    <trip id="214" depart="2020.00" from="e5to2" to="e10to11" type="veh_passenger"/>
    <trip id="215" depart="2024.00" from="e4to1" to="e7to6" type="veh_passenger"/>
    <trip id="216" depart="2026.00" from="e12to11" to="e8to15" type="veh_passenger"/>
    <trip id="217" depart="2060.00" from="e6to3" to="e2to1" type="veh_passenger"/>
    <trip id="218" depart="2064.00" from="e1to2" to="e4to3" type="veh_passenger"/>
    <trip id="219" depart="2081.00" from="e2to5" to="e7to12" type="veh_passenger"/>
    <trip id="220" depart="2089.00" from="e9to4" to="e12to13" type="veh_passenger"/>
    <trip id="221" depart="2092.00" from="e9to8" to="e6to11" type="veh_passenger"/>
    <trip id="222" depart="2093.00" from="e2to1" to="e9to16" type="veh_passenger"/>
    <trip id="223" depart="2095.00" from="e1to4" to="e11to12" type="veh_passenger"/>
    <trip id="224" depart="2114.00" from="e15to8" to="e2to1" type="veh_passenger"/>
    <trip id="225" depart="2115.00" from="e12to7" to="e10to5" type="veh_passenger"/>
    <trip id="226" depart="2120.00" from="e11to10" to="e8to15" type="veh_passenger"/>
    <trip id="227" depart="2125.00" from="e8to3" to="e4to1" type="veh_passenger"/>
    <trip id="228" depart="2130.00" from="e7to12" to="e10to11" type="veh_passenger"/>
    <trip id="229" depart="2142.00" from="e7to14" to="e4to3" type="veh_passenger"/>
    <trip id="230" depart="2143.00" from="e12to13" to="e4to9" type="veh_passenger"/>
    <trip id="231" depart="2157.00" from="e1to2" to="e3to8" type="veh_passenger"/>
    <trip id="232" depart="2164.00" from="e1to4" to="e9to8" type="veh_passenger"/>
    <trip id="233" depart="2179.00" from="e11to10" to="e2to1" type="veh_passenger"/>
    <trip id="234" depart="2197.00" from="e16to9" to="e10to11" type="veh_passenger"/>
    <trip id="235" depart="2202.00" from="e4to9" to="e16to15" type="veh_passenger"/>
    <trip id="236" depart="2231.00" from="e5to6" to="e2to5" type="veh_passenger"/>
    <trip id="237" depart="2247.00" from="e10to11" to="e3to6" type="veh_passenger"/>
    <trip id="238" depart="2259.00" from="e13to14" to="e9to16" type="veh_passenger"/>
    <trip id="239" depart="2270.00" from="e7to14" to="e8to3" type="veh_passenger"/>
    <trip id="240" depart="2274.00" from="e9to16" to="e12to7" type="veh_passenger"/>
    <trip id="241" depart="2295.00" from="e15to14" to="e12to13" type="veh_passenger"/>
    <trip id="242" depart="2315.00" from="e12to13" to="e15to8" type="veh_passenger"/>
    <trip id="243" depart="2348.00" from="e16to9" to="e16to9" type="veh_passenger"/>
    <trip id="244" depart="2359.00" from="e2to5" to="e10to5" type="veh_passenger"/>
    <trip id="245" depart="2361.00" from="e13to14" to="e3to4" type="veh_passenger"/>
    <trip id="246" depart="2377.00" from="e15to14" to="e11to12" type="veh_passenger"/>
    <trip id="247" depart="2386.00" from="e1to2" to="e8to15" type="veh_passenger"/>
    <trip id="248" depart="2404.00" from="e9to8" to="e10to11" type="veh_passenger"/>
    <trip id="249" depart="2419.00" from="e5to6" to="e6to7" type="veh_passenger"/>
    <trip id="250" depart="2426.00" from="e7to12" to="e3to6" type="veh_passenger"/>
    <trip id="251" depart="2436.00" from="e9to16" to="e16to9" type="veh_passenger"/>
    <trip id="252" depart="2439.00" from="e9to4" to="e8to3" type="veh_passenger"/>
    <trip id="253" depart="2442.00" from="e12to7" to="e13to14" type="veh_passenger"/>
    <trip id="254" depart="2449.00" from="e8to7" to="e5to2" type="veh_passenger"/>
    <trip id="255" depart="2450.00" from="e7to14" to="e12to7" type="veh_passenger"/>
    <trip id="256" depart="2451.00" from="e15to14" to="e7to8" type="veh_passenger"/>
    <trip id="257" depart="2464.00" from="e3to8" to="e7to6" type="veh_passenger"/>
    <trip id="258" depart="2473.00" from="e9to8" to="e16to15" type="veh_passenger"/>
    <trip id="259" depart="2475.00" from="e9to4" to="e12to7" type="veh_passenger"/>
    <trip id="260" depart="2479.00" from="e10to5" to="e10to11" type="veh_passenger"/>
    <trip id="261" depart="2495.00" from="e6to5" to="e8to15" type="veh_passenger"/>
    <trip id="262" depart="2497.00" from="e5to2" to="e15to14" type="veh_passenger"/>
    <trip id="263" depart="2508.00" from="e15to8" to="e6to11" type="veh_passenger"/>
    <trip id="264" depart="2530.00" from="e12to13" to="e8to3" type="veh_passenger"/>
    <trip id="265" depart="2534.00" from="e15to14" to="e11to6" type="veh_passenger"/>
    <trip id="266" depart="2536.00" from="e3to6" to="e8to15" type="veh_passenger"/>
    <trip id="267" depart="2537.00" from="e2to3" to="e10to5" type="veh_passenger"/>
    <trip id="268" depart="2547.00" from="e16to15" to="e5to6" type="veh_passenger"/>
    <trip id="269" depart="2582.00" from="e13to12" to="e5to2" type="veh_passenger"/>
    <trip id="270" depart="2606.00" from="e4to9" to="e9to8" type="veh_passenger"/>
    <trip id="271" depart="2627.00" from="e15to8" to="e9to4" type="veh_passenger"/>
    <trip id="272" depart="2645.00" from="e2to1" to="e1to2" type="veh_passenger"/>
    <trip id="273" depart="2649.00" from="e9to8" to="e10to5" type="veh_passenger"/>
    <trip id="274" depart="2651.00" from="e5to2" to="e8to15" type="veh_passenger"/>
    <trip id="275" depart="2664.00" from="e12to11" to="e16to9" type="veh_passenger"/>
    <trip id="276" depart="2670.00" from="e3to4" to="e7to12" type="veh_passenger"/>
    <trip id="277" depart="2674.00" from="e8to9" to="e4to1" type="veh_passenger"/>
    <trip id="278" depart="2679.00" from="e7to14" to="e12to11" type="veh_passenger"/>
    <trip id="279" depart="2687.00" from="e9to8" to="e13to14" type="veh_passenger"/>
    <trip id="280" depart="2688.00" from="e2to3" to="e8to15" type="veh_passenger"/>
    <trip id="281" depart="2707.00" from="e16to9" to="e4to1" type="veh_passenger"/>
    <trip id="282" depart="2743.00" from="e8to15" to="e15to16" type="veh_passenger"/>
    <trip id="283" depart="2745.00" from="e1to4" to="e13to12" type="veh_passenger"/>
    <trip id="284" depart="2747.00" from="e14to15" to="e15to8" type="veh_passenger"/>
    <trip id="285" depart="2768.00" from="e10to5" to="e9to8" type="veh_passenger"/>
    <trip id="286" depart="2771.00" from="e9to8" to="e14to7" type="veh_passenger"/>
    <trip id="287" depart="2776.00" from="e3to4" to="e14to7" type="veh_passenger"/>
    <trip id="288" depart="2783.00" from="e3to6" to="e16to15" type="veh_passenger"/>
    <trip id="289" depart="2786.00" from="e3to6" to="e10to11" type="veh_passenger"/>
    <trip id="290" depart="2798.00" from="e1to2" to="e5to2" type="veh_passenger"/>
    <trip id="291" depart="2813.00" from="e3to8" to="e2to3" type="veh_passenger"/>
    <trip id="292" depart="2819.00" from="e12to13" to="e8to9" type="veh_passenger"/>
    <trip id="293" depart="2835.00" from="e11to12" to="e7to12" type="veh_passenger"/>
    <trip id="294" depart="2842.00" from="e2to1" to="e6to3" type="veh_passenger"/>
    <trip id="295" depart="2847.00" from="e8to3" to="e9to8" type="veh_passenger"/>
    <trip id="296" depart="2849.00" from="e7to12" to="e11to10" type="veh_passenger"/>
    <trip id="297" depart="2860.00" from="e2to1" to="e9to8" type="veh_passenger"/>
    <trip id="298" depart="2869.00" from="e14to7" to="e14to15" type="veh_passenger"/>
    <trip id="299" depart="2871.00" from="e9to4" to="e4to3" type="veh_passenger"/>
    <trip id="300" depart="2883.00" from="e6to5" to="e14to15" type="veh_passenger"/>
    <trip id="301" depart="2895.00" from="e4to3" to="e8to3" type="veh_passenger"/>
    <trip id="302" depart="2940.00" from="e9to8" to="e14to7" type="veh_passenger"/>
    <trip id="303" depart="2944.00" from="e6to7" to="e15to8" type="veh_passenger"/>
    <trip id="304" depart="2967.00" from="e7to6" to="e13to14" type="veh_passenger"/>
    <trip id="305" depart="2969.00" from="e6to3" to="e5to2" type="veh_passenger"/>
    <trip id="306" depart="2985.00" from="e6to11" to="e9to16" type="veh_passenger"/>
    <trip id="307" depart="2995.00" from="e7to12" to="e10to5" type="veh_passenger"/>
    <trip id="308" depart="2996.00" from="e15to8" to="e5to6" type="veh_passenger"/>
    <trip id="309" depart="3001.00" from="e1to4" to="e2to3" type="veh_passenger"/>
    <trip id="310" depart="3003.00" from="e9to8" to="e15to14" type="veh_passenger"/>
    <trip id="311" depart="3014.00" from="e6to11" to="e1to2" type="veh_passenger"/>
    <trip id="312" depart="3015.00" from="e5to10" to="e15to14" type="veh_passenger"/>
    <trip id="313" depart="3017.00" from="e8to7" to="e8to3" type="veh_passenger"/>
    <trip id="314" depart="3020.00" from="e11to12" to="e2to3" type="veh_passenger"/>
    <trip id="315" depart="3044.00" from="e3to4" to="e15to8" type="veh_passenger"/>
    <trip id="316" depart="3057.00" from="e13to12" to="e6to11" type="veh_passenger"/>
    <trip id="317" depart="3058.00" from="e11to12" to="e8to15" type="veh_passenger"/>
    <trip id="318" depart="3068.00" from="e2to5" to="e13to14" type="veh_passenger"/>
    <trip id="319" depart="3077.00" from="e3to6" to="e10to5" type="veh_passenger"/>
    <trip id="320" depart="3090.00" from="e7to6" to="e14to7" type="veh_passenger"/>
    <trip id="321" depart="3128.00" from="e15to14" to="e11to10" type="veh_passenger"/>
    <trip id="322" depart="3131.00" from="e16to15" to="e15to8" type="veh_passenger"/>
    <trip id="323" depart="3140.00" from="e5to2" to="e2to5" type="veh_passenger"/>
    <trip id="324" depart="3142.00" from="e11to10" to="e15to14" type="veh_passenger"/>
    <trip id="325" depart="3147.00" from="e14to13" to="e9to4" type="veh_passenger"/>
    <trip id="326" depart="3153.00" from="e12to7" to="e9to16" type="veh_passenger"/>
    <trip id="327" depart="3162.00" from="e7to8" to="e1to4" type="veh_passenger"/>
    <trip id="328" depart="3166.00" from="e10to11" to="e5to6" type="veh_passenger"/>
    <trip id="329" depart="3181.00" from="e2to1" to="e6to5" type="veh_passenger"/>
    <trip id="330" depart="3210.00" from="e15to14" to="e12to13" type="veh_passenger"/>
    <trip id="331" depart="3226.00" from="e7to14" to="e4to1" type="veh_passenger"/>
    <trip id="332" depart="3227.00" from="e9to16" to="e11to12" type="veh_passenger"/>
    <trip id="333" depart="3241.00" from="e3to6" to="e12to13" type="veh_passenger"/>
    <trip id="334" depart="3274.00" from="e5to10" to="e3to2" type="veh_passenger"/>
    <trip id="335" depart="3330.00" from="e5to2" to="e15to8" type="veh_passenger"/>
    <trip id="336" depart="3339.00" from="e14to15" to="e15to8" type="veh_passenger"/>
    <trip id="337" depart="3342.00" from="e7to12" to="e1to4" type="veh_passenger"/>
    <trip id="338" depart="3359.00" from="e9to8" to="e11to12" type="veh_passenger"/>
    <trip id="339" depart="3380.00" from="e13to14" to="e7to14" type="veh_passenger"/>
    <trip id="340" depart="3388.00" from="e3to4" to="e11to10" type="veh_passenger"/>
    <trip id="341" depart="3393.00" from="e7to12" to="e8to9" type="veh_passenger"/>
    <trip id="342" depart="3395.00" from="e5to6" to="e11to10" type="veh_passenger"/>
    <trip id="343" depart="3402.00" from="e2to1" to="e11to10" type="veh_passenger"/>