<?xml version="1.0" ?>
<additional xmlns:xsi="http://www.w3.org/2001/XMLSchema-instance" xsi:noNamespaceSchemaLocation="http://https://sumo.dlr.de/xsd/sumoConfiguration.xsd">
	<vType accel="2.6" decel="4.5" emissionClass="HBEFA3/PC_G_EU4" id="veh_passenger" maxSpeed="55.55" speedFactor="1.0" vClass="passenger"/>
	<vType accel="2.6" decel="4.5" emissionClass="HBEFA3/PC_G_EU4" id="veh_emergency" maxSpeed="55.55" speedFactor="1.0" vClass="emergency"/>
</additional>
