<?xml version="1.0" ?>
<additional>
	<vType id="veh_passenger" vClass="passenger" emissionClass="HBEFA3/PC_G_EU4" accel="2.6" decel="4.5" maxSpeed="55.55" speedFactor="1.0"/>
	<vType id="veh_emergency" vClass="emergency" emissionClass="HBEFA3/PC_G_EU4" accel="2.6" decel="4.5" maxSpeed="55.55" speedFactor="1.0"/>
</additional>
