<?xml version="1.0" encoding="UTF-8"?>

<!-- generated on Wed Dec 16 17:02:18 2020 by Eclipse SUMO duarouter Version v1_1_0+0000-2147d155b1
<configuration xmlns:xsi="http://www.w3.org/2001/XMLSchema-instance" xsi:noNamespaceSchemaLocation="http://sumo.dlr.de/xsd/duarouterConfiguration.xsd">

    <input>
        <net-file value="/home/nicholas/Documents/TrafficEmu/grid_simulation/grid.net.xml"/>
        <route-files value="/home/nicholas/Documents/TrafficEmu/random-trip-generator/trips.trips.xml"/>
    </input>

    <output>
        <output-file value="/home/nicholas/Documents/TrafficEmu/random-trip-generator/routes.rou.xml"/>
        <alternatives-output value="/home/nicholas/Documents/TrafficEmu/random-trip-generator/routes.rou.alt.xml"/>
    </output>

    <time>
        <begin value="0"/>
        <end value="3600.0"/>
    </time>

    <report>
        <no-warnings value="true"/>
        <ignore-errors value="true"/>
        <no-step-log value="true"/>
    </report>

</configuration>
-->

<routes xmlns:xsi="http://www.w3.org/2001/XMLSchema-instance" xsi:noNamespaceSchemaLocation="http://sumo.dlr.de/xsd/routes_file.xsd">
    <vType id="passenger" vClass="passenger"/>
    <vehicle id="0" type="passenger" depart="14.00">
        <route edges="e12to7 e7to8 e8to15 e15to16 e16to9"/>
    </vehicle>
    <vehicle id="1" type="passenger" depart="22.00">
        <route edges="e8to7 e7to6 e6to7"/>
    </vehicle>
    <vehicle id="2" type="passenger" depart="34.00">
        <route edges="e16to15 e15to8 e8to9 e9to16"/>
    </vehicle>
    <vehicle id="3" type="passenger" depart="40.00">
        <route edges="e16to15 e15to8 e8to7 e7to12"/>
    </vehicle>
    <vehicle id="4" type="passenger" depart="66.00">
        <route edges="e7to6 e6to3 e3to4"/>
    </vehicle>
    <vehicle id="5" type="passenger" depart="67.00">
        <route edges="e6to3 e3to8"/>
    </vehicle>
    <vehicle id="6" type="passenger" depart="78.00">
        <route edges="e12to11 e11to6 e6to11"/>
    </vehicle>
    <vehicle id="7" type="passenger" depart="88.00">
        <route edges="e12to13 e13to14 e14to7 e7to8 e8to3 e3to4 e4to1"/>
    </vehicle>
    <vehicle id="8" type="passenger" depart="93.00">
        <route edges="e15to8 e8to3"/>
    </vehicle>
    <vehicle id="9" type="passenger" depart="97.00">
        <route edges="e6to3 e3to6 e6to11 e11to10 e10to5"/>
    </vehicle>
    <vehicle id="10" type="passenger" depart="99.00">
        <route edges="e15to14 e14to15 e15to8 e8to3 e3to2 e2to1"/>
    </vehicle>
    <vehicle id="11" type="passenger" depart="129.00">
        <route edges="e7to6"/>
    </vehicle>
    <vehicle id="12" type="passenger" depart="135.00">
        <route edges="e15to16 e16to9 e9to8 e8to7 e7to6"/>
    </vehicle>
    <vehicle id="13" type="passenger" depart="137.00">
        <route edges="e4to1 e1to2 e2to3"/>
    </vehicle>
    <vehicle id="14" type="passenger" depart="143.00">
        <route edges="e2to1 e1to4"/>
    </vehicle>
    <vehicle id="15" type="passenger" depart="144.00">
        <route edges="e1to2 e2to3 e3to8 e8to9"/>
    </vehicle>
    <vehicle id="16" type="passenger" depart="145.00">
        <route edges="e3to4 e4to3 e3to8 e8to15 e15to14"/>
    </vehicle>
    <vehicle id="17" type="passenger" depart="166.00">
        <route edges="e11to10 e10to5 e5to6 e6to7 e7to12 e12to7"/>
    </vehicle>
    <vehicle id="18" type="passenger" depart="198.00">
        <route edges="e1to2 e2to3 e3to6 e6to7 e7to8"/>
    </vehicle>
    <vehicle id="19" type="passenger" depart="206.00">
        <route edges="e14to7 e7to12 e12to11 e11to10 e10to5"/>
    </vehicle>
    <vehicle id="20" type="passenger" depart="211.00">
        <route edges="e5to6 e6to7 e7to14 e14to7"/>
    </vehicle>
    <vehicle id="21" type="passenger" depart="222.00">
        <route edges="e11to12 e12to7 e7to8 e8to15 e15to14"/>
    </vehicle>
    <vehicle id="22" type="passenger" depart="224.00">
        <route edges="e7to12 e12to7 e7to14 e14to13"/>
    </vehicle>
    <vehicle id="23" type="passenger" depart="225.00">
        <route edges="e7to8 e8to7 e7to12"/>
    </vehicle>
    <vehicle id="24" type="passenger" depart="243.00">
        <route edges="e3to4 e4to3 e3to8 e8to3"/>
    </vehicle>
    <vehicle id="25" type="passenger" depart="252.00">
        <route edges="e2to3 e3to6 e6to11 e11to6"/>
    </vehicle>
    <vehicle id="26" type="passenger" depart="253.00">
        <route edges="e10to11 e11to6 e6to3 e3to2"/>
    </vehicle>
    <vehicle id="27" type="passenger" depart="254.00">
        <route edges="e12to7 e7to12 e12to11"/>
    </vehicle>
    <vehicle id="28" type="passenger" depart="258.00">
        <route edges="e3to4 e4to3 e3to8 e8to7 e7to14 e14to13 e13to12"/>
    </vehicle>
    <vehicle id="29" type="passenger" depart="268.00">
        <route edges="e8to7 e7to8 e8to15 e15to8"/>
    </vehicle>
    <vehicle id="30" type="passenger" depart="271.00">
        <route edges="e1to2 e2to1 e1to4"/>
    </vehicle>
    <vehicle id="31" type="passenger" depart="311.00">
        <route edges="e9to16 e16to15 e15to14 e14to13 e13to12"/>
    </vehicle>
    <vehicle id="32" type="passenger" depart="325.00">
        <route edges="e7to12 e12to7 e7to6"/>
    </vehicle>
    <vehicle id="33" type="passenger" depart="327.00">
        <route edges="e2to3 e3to6 e6to7 e7to14 e14to13"/>
    </vehicle>
    <vehicle id="34" type="passenger" depart="330.00">
        <route edges="e12to13 e13to14 e14to7 e7to12"/>
    </vehicle>
    <vehicle id="35" type="passenger" depart="337.00">
        <route edges="e16to9 e9to8 e8to15 e15to14 e14to7"/>
    </vehicle>
    <vehicle id="36" type="passenger" depart="343.00">
        <route edges="e3to8 e8to9 e9to16"/>
    </vehicle>
    <vehicle id="37" type="passenger" depart="352.00">
        <route edges="e5to2 e2to5 e5to6 e6to5"/>
    </vehicle>
    <vehicle id="38" type="passenger" depart="355.00">
        <route edges="e11to6 e6to11 e11to12 e12to7"/>
    </vehicle>
    <vehicle id="39" type="passenger" depart="366.00">
        <route edges="e2to3 e3to2 e2to5 e5to10 e10to11"/>
    </vehicle>
    <vehicle id="40" type="passenger" depart="374.00">
        <route edges="e14to7 e7to8 e8to3 e3to2 e2to1"/>
    </vehicle>
    <vehicle id="41" type="passenger" depart="380.00">
        <route edges="e6to7 e7to8 e8to3 e3to4 e4to1"/>
    </vehicle>
    <vehicle id="42" type="passenger" depart="381.00">
        <route edges="e15to16 e16to9 e9to8 e8to3 e3to6 e6to5 e5to2"/>
    </vehicle>
    <vehicle id="43" type="passenger" depart="384.00">
        <route edges="e2to5 e5to2"/>
    </vehicle>
    <vehicle id="44" type="passenger" depart="419.00">
        <route edges="e6to3 e3to8 e8to9"/>
    </vehicle>
    <vehicle id="45" type="passenger" depart="425.00">
        <route edges="e9to16 e16to15 e15to16"/>
    </vehicle>
    <vehicle id="46" type="passenger" depart="426.00">
        <route edges="e7to14 e14to7 e7to8 e8to3 e3to4 e4to3"/>
    </vehicle>
    <vehicle id="47" type="passenger" depart="434.00">
        <route edges="e11to12 e12to7 e7to6 e6to3 e3to4 e4to3"/>
    </vehicle>
    <vehicle id="48" type="passenger" depart="443.00">
        <route edges="e16to9 e9to8 e8to15"/>
    </vehicle>
    <vehicle id="49" type="passenger" depart="448.00">
        <route edges="e5to2 e2to5 e5to6 e6to11 e11to10 e10to5"/>
    </vehicle>
    <vehicle id="50" type="passenger" depart="461.00">
        <route edges="e16to15 e15to8 e8to9 e9to8"/>
    </vehicle>
    <vehicle id="51" type="passenger" depart="462.00">
        <route edges="e12to11 e11to12 e12to7 e7to8 e8to9 e9to16 e16to15"/>
    </vehicle>
    <vehicle id="52" type="passenger" depart="481.00">
        <route edges="e15to14 e14to7 e7to12 e12to13 e13to14"/>
    </vehicle>
    <vehicle id="53" type="passenger" depart="489.00">
        <route edges="e16to15 e15to8 e8to15"/>
    </vehicle>
    <vehicle id="54" type="passenger" depart="491.00">
        <route edges="e5to10 e10to11 e11to6 e6to3 e3to8"/>
    </vehicle>
    <vehicle id="55" type="passenger" depart="496.00">
        <route edges="e3to2 e2to3 e3to6 e6to7 e7to14 e14to7"/>
    </vehicle>
    <vehicle id="56" type="passenger" depart="503.00">
        <route edges="e5to10 e10to11 e11to6 e6to7 e7to14 e14to15"/>
    </vehicle>
    <vehicle id="57" type="passenger" depart="511.00">
        <route edges="e5to2 e2to1 e1to4"/>
    </vehicle>
    <vehicle id="58" type="passenger" depart="532.00">
        <route edges="e11to6 e6to7 e7to12"/>
    </vehicle>
    <vehicle id="59" type="passenger" depart="563.00">
        <route edges="e7to8 e8to3 e3to2 e2to1 e1to4"/>
    </vehicle>
    <vehicle id="60" type="passenger" depart="570.00">
        <route edges="e16to15 e15to8 e8to7 e7to12 e12to13 e13to14"/>
    </vehicle>
    <vehicle id="61" type="passenger" depart="572.00">
        <route edges="e12to7 e7to8 e8to15 e15to16 e16to9"/>
    </vehicle>
    <vehicle id="62" type="passenger" depart="595.00">
        <route edges="e7to6 e6to3 e3to2 e2to5"/>
    </vehicle>
    <vehicle id="63" type="passenger" depart="617.00">
        <route edges="e8to7 e7to8 e8to3 e3to2"/>
    </vehicle>
    <vehicle id="64" type="passenger" depart="622.00">
        <route edges="e5to6 e6to7 e7to12 e12to7"/>
    </vehicle>
    <vehicle id="65" type="passenger" depart="631.00">
        <route edges="e15to8 e8to7 e7to6 e6to11 e11to10 e10to5"/>
    </vehicle>
    <vehicle id="66" type="passenger" depart="642.00">
        <route edges="e4to3 e3to6 e6to5"/>
    </vehicle>
    <vehicle id="67" type="passenger" depart="652.00">
        <route edges="e16to15 e15to8 e8to7 e7to6 e6to11 e11to10"/>
    </vehicle>
    <vehicle id="68" type="passenger" depart="655.00">
        <route edges="e9to16 e16to15 e15to8 e8to7 e7to6 e6to5 e5to10 e10to11"/>
    </vehicle>
    <vehicle id="69" type="passenger" depart="659.00">
        <route edges="e14to15 e15to8 e8to7 e7to6 e6to11 e11to12"/>
    </vehicle>
    <vehicle id="70" type="passenger" depart="676.00">
        <route edges="e1to4 e4to3 e3to6 e6to5 e5to10"/>
    </vehicle>
    <vehicle id="71" type="passenger" depart="684.00">
        <route edges="e5to10 e10to11 e11to6 e6to7 e7to6"/>
    </vehicle>
    <vehicle id="72" type="passenger" depart="704.00">
        <route edges="e8to3 e3to2 e2to1"/>
    </vehicle>
    <vehicle id="73" type="passenger" depart="718.00">
        <route edges="e15to8 e8to7 e7to6 e6to5 e5to10 e10to11"/>
    </vehicle>
    <vehicle id="74" type="passenger" depart="721.00">
        <route edges="e12to13 e13to14 e14to7 e7to8 e8to3 e3to2 e2to1"/>
    </vehicle>
    <vehicle id="75" type="passenger" depart="727.00">
        <route edges="e12to13 e13to14 e14to7 e7to8 e8to7"/>
    </vehicle>
    <vehicle id="76" type="passenger" depart="736.00">
        <route edges="e8to9 e9to8 e8to3 e3to6 e6to5 e5to10"/>
    </vehicle>
    <vehicle id="77" type="passenger" depart="747.00">
        <route edges="e2to5 e5to6"/>
    </vehicle>
    <vehicle id="78" type="passenger" depart="752.00">
        <route edges="e8to15 e15to8 e8to7 e7to6 e6to3"/>
    </vehicle>
    <vehicle id="79" type="passenger" depart="762.00">
        <route edges="e1to4 e4to3 e3to8 e8to7 e7to12 e12to11"/>
    </vehicle>
    <vehicle id="80" type="passenger" depart="779.00">
        <route edges="e11to6 e6to5 e5to10"/>
    </vehicle>
    <vehicle id="81" type="passenger" depart="786.00">
        <route edges="e7to14 e14to7 e7to8 e8to9 e9to4"/>
    </vehicle>
    <vehicle id="82" type="passenger" depart="801.00">
        <route edges="e4to1 e1to2 e2to3 e3to6 e6to7 e7to14 e14to13 e13to12"/>
    </vehicle>
    <vehicle id="83" type="passenger" depart="808.00">
        <route edges="e1to2 e2to3 e3to8"/>
    </vehicle>
    <vehicle id="84" type="passenger" depart="810.00">
        <route edges="e12to11 e11to6 e6to5 e5to10 e10to11"/>
    </vehicle>
    <vehicle id="85" type="passenger" depart="820.00">
        <route edges="e3to2 e2to3 e3to4 e4to9 e9to4"/>
    </vehicle>
    <vehicle id="86" type="passenger" depart="826.00">
        <route edges="e5to6 e6to3 e3to2"/>
    </vehicle>
    <vehicle id="87" type="passenger" depart="831.00">
        <route edges="e9to8 e8to3 e3to6 e6to5"/>
    </vehicle>
    <vehicle id="88" type="passenger" depart="839.00">
        <route edges="e14to13 e13to12 e12to7 e7to6 e6to3 e3to4 e4to9"/>
    </vehicle>
    <vehicle id="89" type="passenger" depart="851.00">
        <route edges="e9to16 e16to15 e15to8 e8to7 e7to6 e6to7"/>
    </vehicle>
    <vehicle id="90" type="passenger" depart="863.00">
        <route edges="e6to11 e11to6 e6to5 e5to6"/>
    </vehicle>
    <vehicle id="91" type="passenger" depart="907.00">
        <route edges="e5to6 e6to3 e3to8 e8to15 e15to8"/>
    </vehicle>
    <vehicle id="92" type="passenger" depart="936.00">
        <route edges="e7to14 e14to7 e7to8 e8to3 e3to4 e4to9"/>
    </vehicle>
    <vehicle id="93" type="passenger" depart="949.00">
        <route edges="e8to3 e3to8 e8to15 e15to16"/>
    </vehicle>
    <vehicle id="94" type="passenger" depart="955.00">
        <route edges="e2to5 e5to6 e6to3 e3to4 e4to9"/>
    </vehicle>
    <vehicle id="95" type="passenger" depart="961.00">
        <route edges="e6to11 e11to6 e6to7 e7to8 e8to15 e15to8"/>
    </vehicle>
    <vehicle id="96" type="passenger" depart="968.00">
        <route edges="e12to13 e13to14 e14to7 e7to8 e8to15"/>
    </vehicle>
    <vehicle id="97" type="passenger" depart="978.00">
        <route edges="e10to5 e5to6 e6to7 e7to14 e14to13 e13to12"/>
    </vehicle>
    <vehicle id="98" type="passenger" depart="989.00">
        <route edges="e15to14 e14to15 e15to8 e8to3 e3to2"/>
    </vehicle>
    <vehicle id="99" type="passenger" depart="992.00">
        <route edges="e7to12 e12to7 e7to6 e6to11"/>
    </vehicle>
    <vehicle id="100" type="passenger" depart="998.00">
        <route edges="e4to9 e9to4 e4to3 e3to8"/>
    </vehicle>
    <vehicle id="101" type="passenger" depart="1008.00">
        <route edges="e1to2 e2to3 e3to8 e8to15 e15to16"/>
    </vehicle>
    <vehicle id="102" type="passenger" depart="1011.00">
        <route edges="e14to15 e15to8 e8to9"/>
    </vehicle>
    <vehicle id="103" type="passenger" depart="1038.00">
        <route edges="e7to8 e8to3 e3to4 e4to1"/>
    </vehicle>
    <vehicle id="104" type="passenger" depart="1049.00">
        <route edges="e6to5"/>
    </vehicle>
    <vehicle id="105" type="passenger" depart="1059.00">
        <route edges="e16to15 e15to8 e8to9 e9to8"/>
    </vehicle>
    <vehicle id="106" type="passenger" depart="1066.00">
        <route edges="e2to3 e3to4 e4to9 e9to16"/>
    </vehicle>
    <vehicle id="107" type="passenger" depart="1071.00">
        <route edges="e3to8 e8to15 e15to16"/>
    </vehicle>
    <vehicle id="108" type="passenger" depart="1073.00">
        <route edges="e9to16 e16to15 e15to14 e14to13 e13to12"/>
    </vehicle>
    <vehicle id="109" type="passenger" depart="1086.00">
        <route edges="e15to8 e8to7 e7to6 e6to5 e5to10 e10to11"/>
    </vehicle>
    <vehicle id="110" type="passenger" depart="1090.00">
        <route edges="e2to1 e1to4 e4to3 e3to8 e8to7 e7to12 e12to13"/>
    </vehicle>
    <vehicle id="111" type="passenger" depart="1098.00">
        <route edges="e12to7 e7to6 e6to3 e3to4"/>
    </vehicle>
    <vehicle id="112" type="passenger" depart="1157.00">
        <route edges="e16to15 e15to8 e8to9"/>
    </vehicle>
    <vehicle id="113" type="passenger" depart="1161.00">
        <route edges="e14to15 e15to8 e8to3 e3to2"/>
    </vehicle>
    <vehicle id="114" type="passenger" depart="1166.00">
        <route edges="e4to3 e3to8 e8to7 e7to14 e14to15"/>
    </vehicle>
    <vehicle id="115" type="passenger" depart="1179.00">
        <route edges="e6to7 e7to6 e6to11"/>
    </vehicle>
    <vehicle id="116" type="passenger" depart="1183.00">
        <route edges="e1to2 e2to3 e3to6 e6to7 e7to8"/>
    </vehicle>
    <vehicle id="117" type="passenger" depart="1184.00">
        <route edges="e9to4 e4to3 e3to8 e8to7 e7to6"/>
    </vehicle>
    <vehicle id="118" type="passenger" depart="1190.00">
        <route edges="e6to3 e3to6 e6to7 e7to14 e14to13"/>
    </vehicle>
    <vehicle id="119" type="passenger" depart="1191.00">
        <route edges="e6to7 e7to8"/>
    </vehicle>
    <vehicle id="120" type="passenger" depart="1205.00">
        <route edges="e11to12 e12to11 e11to10 e10to5"/>
    </vehicle>
    <vehicle id="121" type="passenger" depart="1219.00">
        <route edges="e2to3 e3to8 e8to15"/>
    </vehicle>
    <vehicle id="122" type="passenger" depart="1227.00">
        <route edges="e8to9 e9to8 e8to7 e7to12 e12to11"/>
    </vehicle>
    <vehicle id="123" type="passenger" depart="1232.00">
        <route edges="e14to13 e13to12 e12to7 e7to14 e14to7"/>
    </vehicle>
    <vehicle id="124" type="passenger" depart="1240.00">
        <route edges="e13to14 e14to7 e7to8 e8to3 e3to2 e2to1 e1to4"/>
    </vehicle>
    <vehicle id="125" type="passenger" depart="1268.00">
        <route edges="e6to7 e7to8 e8to15 e15to14"/>
    </vehicle>
    <vehicle id="126" type="passenger" depart="1278.00">
        <route edges="e9to8 e8to15"/>
    </vehicle>
    <vehicle id="127" type="passenger" depart="1280.00">
        <route edges="e5to10 e10to11 e11to6"/>
    </vehicle>
    <vehicle id="128" type="passenger" depart="1284.00">
        <route edges="e3to6 e6to7 e7to14 e14to7"/>
    </vehicle>
    <vehicle id="129" type="passenger" depart="1292.00">
        <route edges="e11to12 e12to7 e7to8 e8to7"/>
    </vehicle>
    <vehicle id="130" type="passenger" depart="1294.00">
        <route edges="e16to15 e15to14"/>
    </vehicle>
    <vehicle id="131" type="passenger" depart="1319.00">
        <route edges="e11to6 e6to5 e5to6"/>
    </vehicle>
    <vehicle id="132" type="passenger" depart="1378.00">
        <route edges="e11to6 e6to7 e7to8 e8to15 e15to8"/>
    </vehicle>
    <vehicle id="133" type="passenger" depart="1384.00">
        <route edges="e9to4 e4to3 e3to8 e8to7 e7to12 e12to13 e13to14"/>
    </vehicle>
    <vehicle id="134" type="passenger" depart="1399.00">
        <route edges="e13to12 e12to11 e11to6"/>
    </vehicle>
    <vehicle id="135" type="passenger" depart="1407.00">
        <route edges="e9to16 e16to15 e15to8 e8to3 e3to2 e2to5"/>
    </vehicle>
    <vehicle id="136" type="passenger" depart="1414.00">
        <route edges="e6to3 e3to6 e6to5 e5to10 e10to11"/>
    </vehicle>
    <vehicle id="137" type="passenger" depart="1420.00">
        <route edges="e16to15 e15to8 e8to9 e9to16"/>
    </vehicle>
    <vehicle id="138" type="passenger" depart="1425.00">
        <route edges="e14to13 e13to12 e12to11"/>
    </vehicle>
    <vehicle id="139" type="passenger" depart="1429.00">
        <route edges="e14to13 e13to12 e12to13"/>
    </vehicle>
    <vehicle id="140" type="passenger" depart="1454.00">
        <route edges="e3to6 e6to7 e7to8 e8to9 e9to8"/>
    </vehicle>
    <vehicle id="141" type="passenger" depart="1460.00">
        <route edges="e2to5 e5to6 e6to3 e3to8 e8to3"/>
    </vehicle>
    <vehicle id="142" type="passenger" depart="1479.00">
        <route edges="e14to7 e7to6 e6to3"/>
    </vehicle>
    <vehicle id="143" type="passenger" depart="1489.00">
        <route edges="e16to9 e9to8 e8to15 e15to14 e14to13"/>
    </vehicle>
    <vehicle id="144" type="passenger" depart="1505.00">
        <route edges="e2to5 e5to10 e10to11"/>
    </vehicle>
    <vehicle id="145" type="passenger" depart="1545.00">
        <route edges="e2to3 e3to6 e6to7 e7to6"/>
    </vehicle>
    <vehicle id="146" type="passenger" depart="1558.00">
        <route edges="e4to9 e9to8 e8to7"/>
    </vehicle>
    <vehicle id="147" type="passenger" depart="1562.00">
        <route edges="e12to11 e11to10 e10to5"/>
    </vehicle>
    <vehicle id="148" type="passenger" depart="1564.00">
        <route edges="e16to15 e15to8 e8to9"/>
    </vehicle>
    <vehicle id="149" type="passenger" depart="1578.00">
        <route edges="e8to3 e3to6 e6to7 e7to8"/>
    </vehicle>
    <vehicle id="150" type="passenger" depart="1581.00">
        <route edges="e12to13 e13to14 e14to7 e7to6 e6to5 e5to10 e10to11"/>
    </vehicle>
    <vehicle id="151" type="passenger" depart="1586.00">
        <route edges="e8to7 e7to14"/>
    </vehicle>
    <vehicle id="152" type="passenger" depart="1592.00">
        <route edges="e12to11 e11to6 e6to5 e5to2 e2to5"/>
    </vehicle>
    <vehicle id="153" type="passenger" depart="1618.00">
        <route edges="e8to15 e15to8 e8to3 e3to8"/>
    </vehicle>
    <vehicle id="154" type="passenger" depart="1629.00">
        <route edges="e14to7 e7to8 e8to3 e3to2 e2to3"/>
    </vehicle>
    <vehicle id="155" type="passenger" depart="1633.00">
        <route edges="e14to7 e7to6 e6to7"/>
    </vehicle>
    <vehicle id="156" type="passenger" depart="1634.00">
        <route edges="e5to10 e10to11 e11to6 e6to3 e3to8"/>
    </vehicle>
    <vehicle id="157" type="passenger" depart="1645.00">
        <route edges="e10to5 e5to6 e6to7 e7to12 e12to13"/>
    </vehicle>
    <vehicle id="158" type="passenger" depart="1648.00">
        <route edges="e5to6 e6to3 e3to8 e8to15 e15to8"/>
    </vehicle>
    <vehicle id="159" type="passenger" depart="1661.00">
        <route edges="e4to9 e9to4 e4to3 e3to6 e6to3"/>
    </vehicle>
    <vehicle id="160" type="passenger" depart="1665.00">
        <route edges="e8to15 e15to8 e8to7 e7to8"/>
    </vehicle>
    <vehicle id="161" type="passenger" depart="1666.00">
        <route edges="e1to4 e4to3 e3to8 e8to7"/>
    </vehicle>
    <vehicle id="162" type="passenger" depart="1668.00">
        <route edges="e4to1 e1to2 e2to3 e3to8 e8to7"/>
    </vehicle>
    <vehicle id="163" type="passenger" depart="1681.00">
        <route edges="e8to7 e7to14"/>
    </vehicle>
    <vehicle id="164" type="passenger" depart="1703.00">
        <route edges="e16to15 e15to8 e8to7"/>
    </vehicle>
    <vehicle id="165" type="passenger" depart="1746.00">
        <route edges="e12to11 e11to10 e10to5"/>
    </vehicle>
    <vehicle id="166" type="passenger" depart="1766.00">
        <route edges="e5to2 e2to1"/>
    </vehicle>
    <vehicle id="167" type="passenger" depart="1767.00">
        <route edges="e1to2 e2to3 e3to6 e6to7 e7to14 e14to13"/>
    </vehicle>
    <vehicle id="168" type="passenger" depart="1770.00">
        <route edges="e15to8 e8to3 e3to2 e2to1"/>
    </vehicle>
    <vehicle id="169" type="passenger" depart="1781.00">
        <route edges="e3to8 e8to7 e7to12 e12to11"/>
    </vehicle>
    <vehicle id="170" type="passenger" depart="1787.00">
        <route edges="e11to10 e10to5 e5to6 e6to3"/>
    </vehicle>
    <vehicle id="171" type="passenger" depart="1791.00">
        <route edges="e1to2 e2to3 e3to6 e6to7"/>
    </vehicle>
    <vehicle id="172" type="passenger" depart="1799.00">
        <route edges="e13to14 e14to7 e7to8 e8to3 e3to2 e2to3"/>
    </vehicle>
    <vehicle id="173" type="passenger" depart="1801.00">
        <route edges="e9to4 e4to3 e3to2"/>
    </vehicle>
    <vehicle id="174" type="passenger" depart="1802.00">
        <route edges="e6to11 e11to6 e6to3 e3to4"/>
    </vehicle>
    <vehicle id="175" type="passenger" depart="1816.00">
        <route edges="e5to2 e2to5"/>
    </vehicle>
    <vehicle id="176" type="passenger" depart="1817.00">
        <route edges="e1to4 e4to3 e3to6 e6to11 e11to10 e10to5"/>
    </vehicle>
    <vehicle id="177" type="passenger" depart="1818.00">
        <route edges="e6to3 e3to6 e6to7 e7to12 e12to13 e13to14"/>
    </vehicle>
    <vehicle id="178" type="passenger" depart="1831.00">
        <route edges="e8to15 e15to8 e8to7 e7to6 e6to5 e5to10 e10to11"/>
    </vehicle>
    <vehicle id="179" type="passenger" depart="1833.00">
        <route edges="e16to15 e15to8 e8to7 e7to12"/>
    </vehicle>
    <vehicle id="180" type="passenger" depart="1854.00">
        <route edges="e5to2 e2to5 e5to6 e6to7 e7to12 e12to13 e13to14"/>
    </vehicle>
    <vehicle id="181" type="passenger" depart="1856.00">
        <route edges="e9to8"/>
    </vehicle>
    <vehicle id="182" type="passenger" depart="1859.00">
        <route edges="e16to9 e9to4 e4to1 e1to2"/>
    </vehicle>
    <vehicle id="183" type="passenger" depart="1874.00">
        <route edges="e2to3 e3to6 e6to7 e7to12 e12to7"/>
    </vehicle>
    <vehicle id="184" type="passenger" depart="1880.00">
        <route edges="e14to7 e7to8 e8to3 e3to2 e2to3"/>
    </vehicle>
    <vehicle id="185" type="passenger" depart="1886.00">
        <route edges="e5to10 e10to11 e11to6 e6to3 e3to2"/>
    </vehicle>
    <vehicle id="186" type="passenger" depart="1887.00">
        <route edges="e7to12 e12to7 e7to14 e14to15"/>
    </vehicle>
    <vehicle id="187" type="passenger" depart="1894.00">
        <route edges="e14to13 e13to12 e12to11 e11to10"/>
    </vehicle>
    <vehicle id="188" type="passenger" depart="1904.00">
        <route edges="e2to3 e3to6"/>
    </vehicle>
    <vehicle id="189" type="passenger" depart="1905.00">
        <route edges="e16to9 e9to8 e8to3 e3to6"/>
    </vehicle>
    <vehicle id="190" type="passenger" depart="1937.00">
        <route edges="e16to9 e9to8 e8to3 e3to6 e6to11 e11to6"/>
    </vehicle>
    <vehicle id="191" type="passenger" depart="1963.00">
        <route edges="e7to6 e6to7 e7to8 e8to9"/>
    </vehicle>
    <vehicle id="192" type="passenger" depart="1967.00">
        <route edges="e7to12 e12to7 e7to8 e8to15"/>
    </vehicle>
    <vehicle id="193" type="passenger" depart="1987.00">
        <route edges="e6to11 e11to6 e6to5 e5to10 e10to11"/>
    </vehicle>
    <vehicle id="194" type="passenger" depart="1992.00">
        <route edges="e15to8 e8to15 e15to16"/>
    </vehicle>
    <vehicle id="195" type="passenger" depart="2004.00">
        <route edges="e10to11 e11to12 e12to13 e13to14"/>
    </vehicle>
    <vehicle id="196" type="passenger" depart="2005.00">
        <route edges="e4to3 e3to2 e2to1"/>
    </vehicle>
    <vehicle id="197" type="passenger" depart="2006.00">
        <route edges="e8to9 e9to8 e8to3 e3to6"/>
    </vehicle>
    <vehicle id="198" type="passenger" depart="2007.00">
        <route edges="e4to1 e1to2 e2to3 e3to6 e6to11 e11to10"/>
    </vehicle>
    <vehicle id="199" type="passenger" depart="2012.00">
        <route edges="e14to13 e13to12 e12to7 e7to6 e6to3 e3to4"/>
    </vehicle>
    <vehicle id="200" type="passenger" depart="2016.00">
        <route edges="e6to7 e7to6 e6to3"/>
    </vehicle>
    <vehicle id="201" type="passenger" depart="2024.00">
        <route edges="e3to6 e6to7 e7to14 e14to15"/>
    </vehicle>
    <vehicle id="202" type="passenger" depart="2027.00">
        <route edges="e4to1 e1to2 e2to3 e3to6 e6to7 e7to12 e12to13 e13to14"/>
    </vehicle>
    <vehicle id="203" type="passenger" depart="2029.00">
        <route edges="e7to6 e6to7 e7to8 e8to3"/>
    </vehicle>
    <vehicle id="204" type="passenger" depart="2030.00">
        <route edges="e8to9 e9to8 e8to15 e15to16 e16to9"/>
    </vehicle>
    <vehicle id="205" type="passenger" depart="2034.00">
        <route edges="e1to2 e2to3 e3to6 e6to11 e11to12"/>
    </vehicle>
    <vehicle id="206" type="passenger" depart="2037.00">
        <route edges="e15to8 e8to3 e3to4 e4to1"/>
    </vehicle>
    <vehicle id="207" type="passenger" depart="2039.00">
        <route edges="e15to14 e14to7 e7to12"/>
    </vehicle>
    <vehicle id="208" type="passenger" depart="2045.00">
        <route edges="e14to15 e15to8 e8to7 e7to6 e6to11"/>
    </vehicle>
    <vehicle id="209" type="passenger" depart="2048.00">
        <route edges="e2to3 e3to4 e4to9 e9to8"/>
    </vehicle>
    <vehicle id="210" type="passenger" depart="2051.00">
        <route edges="e13to14"/>
    </vehicle>
    <vehicle id="211" type="passenger" depart="2060.00">
        <route edges="e5to2 e2to3 e3to8 e8to15 e15to16 e16to9"/>
    </vehicle>
    <vehicle id="212" type="passenger" depart="2071.00">
        <route edges="e12to7 e7to6 e6to3"/>
    </vehicle>
    <vehicle id="213" type="passenger" depart="2092.00">
        <route edges="e2to3 e3to4 e4to9 e9to16"/>
    </vehicle>
    <vehicle id="214" type="passenger" depart="2114.00">
        <route edges="e13to14 e14to15"/>
    </vehicle>
    <vehicle id="215" type="passenger" depart="2119.00">
        <route edges="e3to6 e6to7 e7to8 e8to7"/>
    </vehicle>
    <vehicle id="216" type="passenger" depart="2120.00">
        <route edges="e15to16 e16to9 e9to8 e8to9"/>
    </vehicle>
    <vehicle id="217" type="passenger" depart="2131.00">
        <route edges="e13to12 e12to7 e7to6 e6to3"/>
    </vehicle>
    <vehicle id="218" type="passenger" depart="2132.00">
        <route edges="e1to2 e2to3 e3to6 e6to7 e7to14 e14to7"/>
    </vehicle>
    <vehicle id="219" type="passenger" depart="2137.00">
        <route edges="e14to7 e7to12 e12to11 e11to10 e10to5"/>
    </vehicle>
    <vehicle id="220" type="passenger" depart="2155.00">
        <route edges="e4to1 e1to2 e2to5 e5to6"/>
    </vehicle>
    <vehicle id="221" type="passenger" depart="2162.00">
        <route edges="e8to9 e9to8 e8to3 e3to6 e6to5 e5to10"/>
    </vehicle>
    <vehicle id="222" type="passenger" depart="2163.00">
        <route edges="e9to4 e4to3 e3to8 e8to7 e7to12 e12to11"/>
    </vehicle>
    <vehicle id="223" type="passenger" depart="2168.00">
        <route edges="e4to1 e1to2 e2to3 e3to4 e4to9 e9to4"/>
    </vehicle>
    <vehicle id="224" type="passenger" depart="2178.00">
        <route edges="e8to9 e9to8 e8to3 e3to2 e2to1"/>
    </vehicle>
    <vehicle id="225" type="passenger" depart="2180.00">
        <route edges="e6to5 e5to6 e6to3 e3to4 e4to1 e1to2"/>
    </vehicle>
    <vehicle id="226" type="passenger" depart="2187.00">
        <route edges="e8to7 e7to8 e8to3 e3to8"/>
    </vehicle>
    <vehicle id="227" type="passenger" depart="2196.00">
        <route edges="e2to1 e1to4 e4to3 e3to8 e8to7 e7to12 e12to11"/>
    </vehicle>
    <vehicle id="228" type="passenger" depart="2197.00">
        <route edges="e3to6 e6to7 e7to8 e8to9 e9to16"/>
    </vehicle>
    <vehicle id="229" type="passenger" depart="2222.00">
        <route edges="e7to6 e6to7 e7to8 e8to9 e9to4"/>
    </vehicle>