<?xml version="1.0" encoding="UTF-8"?>
<!-- generated on 2020-12-16 17:02:18.239546 by $Id$ via randomTrips.py
  options: <doubleminus>net-file /home/nicholas/Documents/TrafficEmu/grid_simulation/grid.net.xml <doubleminus>output-trip-file /home/nicholas/Documents/TrafficEmu/random-trip-generator/trips.trips.xml <doubleminus>end 3600.0 <doubleminus>allow-fringe <doubleminus>fringe-factor 10.0 <doubleminus>validate <doubleminus>vehicle-class passenger <doubleminus>edge-permission passenger <doubleminus>period 10.0 <doubleminus>binomial 1 <doubleminus>route-file /home/nicholas/Documents/TrafficEmu/random-trip-generator/routes.rou.xml
-->
<routes xmlns:xsi="http://www.w3.org/2001/XMLSchema-instance" xsi:noNamespaceSchemaLocation="http://sumo.dlr.de/xsd/routes_file.xsd">
    <vType id="passenger" vClass="passenger">
    </vType>
    <trip id="0" depart="14.00" from="e12to7" to="e16to9" type="passenger"/>
    <trip id="1" depart="22.00" from="e8to7" to="e6to7" type="passenger"/>
    <trip id="2" depart="34.00" from="e16to15" to="e9to16" type="passenger"/>
    <trip id="3" depart="40.00" from="e16to15" to="e7to12" type="passenger"/>
    <trip id="4" depart="66.00" from="e7to6" to="e3to4" type="passenger"/>
    <trip id="5" depart="67.00" from="e6to3" to="e3to8" type="passenger"/>
    <trip id="6" depart="78.00" from="e12to11" to="e6to11" type="passenger"/>
    <trip id="7" depart="88.00" from="e12to13" to="e4to1" type="passenger"/>
    <trip id="8" depart="93.00" from="e15to8" to="e8to3" type="passenger"/>
    <trip id="9" depart="97.00" from="e6to3" to="e10to5" type="passenger"/>
    <trip id="10" depart="99.00" from="e15to14" to="e2to1" type="passenger"/>
    <trip id="11" depart="129.00" from="e7to6" to="e7to6" type="passenger"/>
    <trip id="12" depart="135.00" from="e15to16" to="e7to6" type="passenger"/>
    <trip id="13" depart="137.00" from="e4to1" to="e2to3" type="passenger"/>
    <trip id="14" depart="143.00" from="e2to1" to="e1to4" type="passenger"/>
    <trip id="15" depart="144.00" from="e1to2" to="e8to9" type="passenger"/>
    <trip id="16" depart="145.00" from="e3to4" to="e15to14" type="passenger"/>
    <trip id="17" depart="166.00" from="e11to10" to="e12to7" type="passenger"/>
    <trip id="18" depart="198.00" from="e1to2" to="e7to8" type="passenger"/>
    <trip id="19" depart="206.00" from="e14to7" to="e10to5" type="passenger"/>
    <trip id="20" depart="211.00" from="e5to6" to="e14to7" type="passenger"/>
    <trip id="21" depart="222.00" from="e11to12" to="e15to14" type="passenger"/>
    <trip id="22" depart="224.00" from="e7to12" to="e14to13" type="passenger"/>
    <trip id="23" depart="225.00" from="e7to8" to="e7to12" type="passenger"/>
    <trip id="24" depart="243.00" from="e3to4" to="e8to3" type="passenger"/>
    <trip id="25" depart="252.00" from="e2to3" to="e11to6" type="passenger"/>
    <trip id="26" depart="253.00" from="e10to11" to="e3to2" type="passenger"/>
    <trip id="27" depart="254.00" from="e12to7" to="e12to11" type="passenger"/>
    <trip id="28" depart="258.00" from="e3to4" to="e13to12" type="passenger"/>
    <trip id="29" depart="268.00" from="e8to7" to="e15to8" type="passenger"/>
    <trip id="30" depart="271.00" from="e1to2" to="e1to4" type="passenger"/>
    <trip id="31" depart="311.00" from="e9to16" to="e13to12" type="passenger"/>
    <trip id="32" depart="325.00" from="e7to12" to="e7to6" type="passenger"/>
    <trip id="33" depart="327.00" from="e2to3" to="e14to13" type="passenger"/>
    <trip id="34" depart="330.00" from="e12to13" to="e7to12" type="passenger"/>
    <trip id="35" depart="337.00" from="e16to9" to="e14to7" type="passenger"/>
    <trip id="36" depart="343.00" from="e3to8" to="e9to16" type="passenger"/>
    <trip id="37" depart="352.00" from="e5to2" to="e6to5" type="passenger"/>
    <trip id="38" depart="355.00" from="e11to6" to="e12to7" type="passenger"/>
    <trip id="39" depart="366.00" from="e2to3" to="e10to11" type="passenger"/>
    <trip id="40" depart="374.00" from="e14to7" to="e2to1" type="passenger"/>
    <trip id="41" depart="380.00" from="e6to7" to="e4to1" type="passenger"/>
    <trip id="42" depart="381.00" from="e15to16" to="e5to2" type="passenger"/>
    <trip id="43" depart="384.00" from="e2to5" to="e5to2" type="passenger"/>
    <trip id="44" depart="419.00" from="e6to3" to="e8to9" type="passenger"/>
    <trip id="45" depart="425.00" from="e9to16" to="e15to16" type="passenger"/>
    <trip id="46" depart="426.00" from="e7to14" to="e4to3" type="passenger"/>
    <trip id="47" depart="434.00" from="e11to12" to="e4to3" type="passenger"/>
    <trip id="48" depart="443.00" from="e16to9" to="e8to15" type="passenger"/>
    <trip id="49" depart="448.00" from="e5to2" to="e10to5" type="passenger"/>
    <trip id="50" depart="461.00" from="e16to15" to="e9to8" type="passenger"/>
    <trip id="51" depart="462.00" from="e12to11" to="e16to15" type="passenger"/>
    <trip id="52" depart="481.00" from="e15to14" to="e13to14" type="passenger"/>
    <trip id="53" depart="489.00" from="e16to15" to="e8to15" type="passenger"/>
    <trip id="54" depart="491.00" from="e5to10" to="e3to8" type="passenger"/>
    <trip id="55" depart="496.00" from="e3to2" to="e14to7" type="passenger"/>
    <trip id="56" depart="503.00" from="e5to10" to="e14to15" type="passenger"/>
    <trip id="57" depart="511.00" from="e5to2" to="e1to4" type="passenger"/>
    <trip id="58" depart="532.00" from="e11to6" to="e7to12" type="passenger"/>
    <trip id="59" depart="563.00" from="e7to8" to="e1to4" type="passenger"/>
    <trip id="60" depart="570.00" from="e16to15" to="e13to14" type="passenger"/>
    <trip id="61" depart="572.00" from="e12to7" to="e16to9" type="passenger"/>
    <trip id="62" depart="595.00" from="e7to6" to="e2to5" type="passenger"/>
    <trip id="63" depart="617.00" from="e8to7" to="e3to2" type="passenger"/>
    <trip id="64" depart="622.00" from="e5to6" to="e12to7" type="passenger"/>
    <trip id="65" depart="631.00" from="e15to8" to="e10to5" type="passenger"/>
    <trip id="66" depart="642.00" from="e4to3" to="e6to5" type="passenger"/>
    <trip id="67" depart="652.00" from="e16to15" to="e11to10" type="passenger"/>
    <trip id="68" depart="655.00" from="e9to16" to="e10to11" type="passenger"/>
    <trip id="69" depart="659.00" from="e14to15" to="e11to12" type="passenger"/>
    <trip id="70" depart="676.00" from="e1to4" to="e5to10" type="passenger"/>
    <trip id="71" depart="684.00" from="e5to10" to="e7to6" type="passenger"/>
    <trip id="72" depart="704.00" from="e8to3" to="e2to1" type="passenger"/>
    <trip id="73" depart="718.00" from="e15to8" to="e10to11" type="passenger"/>
    <trip id="74" depart="721.00" from="e12to13" to="e2to1" type="passenger"/>
    <trip id="75" depart="727.00" from="e12to13" to="e8to7" type="passenger"/>
    <trip id="76" depart="736.00" from="e8to9" to="e5to10" type="passenger"/>
    <trip id="77" depart="747.00" from="e2to5" to="e5to6" type="passenger"/>
    <trip id="78" depart="752.00" from="e8to15" to="e6to3" type="passenger"/>
    <trip id="79" depart="762.00" from="e1to4" to="e12to11" type="passenger"/>
    <trip id="80" depart="779.00" from="e11to6" to="e5to10" type="passenger"/>
    <trip id="81" depart="786.00" from="e7to14" to="e9to4" type="passenger"/>
    <trip id="82" depart="801.00" from="e4to1" to="e13to12" type="passenger"/>
    <trip id="83" depart="808.00" from="e1to2" to="e3to8" type="passenger"/>
    <trip id="84" depart="810.00" from="e12to11" to="e10to11" type="passenger"/>
    <trip id="85" depart="820.00" from="e3to2" to="e9to4" type="passenger"/>
    <trip id="86" depart="826.00" from="e5to6" to="e3to2" type="passenger"/>
    <trip id="87" depart="831.00" from="e9to8" to="e6to5" type="passenger"/>
    <trip id="88" depart="839.00" from="e14to13" to="e4to9" type="passenger"/>
    <trip id="89" depart="851.00" from="e9to16" to="e6to7" type="passenger"/>
    <trip id="90" depart="863.00" from="e6to11" to="e5to6" type="passenger"/>
    <trip id="91" depart="907.00" from="e5to6" to="e15to8" type="passenger"/>
    <trip id="92" depart="936.00" from="e7to14" to="e4to9" type="passenger"/>
    <trip id="93" depart="949.00" from="e8to3" to="e15to16" type="passenger"/>
    <trip id="94" depart="955.00" from="e2to5" to="e4to9" type="passenger"/>
    <trip id="95" depart="961.00" from="e6to11" to="e15to8" type="passenger"/>
    <trip id="96" depart="968.00" from="e12to13" to="e8to15" type="passenger"/>
    <trip id="97" depart="978.00" from="e10to5" to="e13to12" type="passenger"/>
    <trip id="98" depart="989.00" from="e15to14" to="e3to2" type="passenger"/>
    <trip id="99" depart="992.00" from="e7to12" to="e6to11" type="passenger"/>
    <trip id="100" depart="998.00" from="e4to9" to="e3to8" type="passenger"/>
    <trip id="101" depart="1008.00" from="e1to2" to="e15to16" type="passenger"/>
    <trip id="102" depart="1011.00" from="e14to15" to="e8to9" type="passenger"/>
    <trip id="103" depart="1038.00" from="e7to8" to="e4to1" type="passenger"/>
    <trip id="104" depart="1049.00" from="e6to5" to="e6to5" type="passenger"/>
    <trip id="105" depart="1059.00" from="e16to15" to="e9to8" type="passenger"/>
    <trip id="106" depart="1066.00" from="e2to3" to="e9to16" type="passenger"/>
    <trip id="107" depart="1071.00" from="e3to8" to="e15to16" type="passenger"/>
    <trip id="108" depart="1073.00" from="e9to16" to="e13to12" type="passenger"/>
    <trip id="109" depart="1086.00" from="e15to8" to="e10to11" type="passenger"/>
    <trip id="110" depart="1090.00" from="e2to1" to="e12to13" type="passenger"/>
    <trip id="111" depart="1098.00" from="e12to7" to="e3to4" type="passenger"/>
    <trip id="112" depart="1157.00" from="e16to15" to="e8to9" type="passenger"/>
    <trip id="113" depart="1161.00" from="e14to15" to="e3to2" type="passenger"/>
    <trip id="114" depart="1166.00" from="e4to3" to="e14to15" type="passenger"/>
    <trip id="115" depart="1179.00" from="e6to7" to="e6to11" type="passenger"/>
    <trip id="116" depart="1183.00" from="e1to2" to="e7to8" type="passenger"/>
    <trip id="117" depart="1184.00" from="e9to4" to="e7to6" type="passenger"/>
    <trip id="118" depart="1190.00" from="e6to3" to="e14to13" type="passenger"/>
    <trip id="119" depart="1191.00" from="e6to7" to="e7to8" type="passenger"/>
    <trip id="120" depart="1205.00" from="e11to12" to="e10to5" type="passenger"/>
    <trip id="121" depart="1219.00" from="e2to3" to="e8to15" type="passenger"/>
    <trip id="122" depart="1227.00" from="e8to9" to="e12to11" type="passenger"/>
    <trip id="123" depart="1232.00" from="e14to13" to="e14to7" type="passenger"/>
    <trip id="124" depart="1240.00" from="e13to14" to="e1to4" type="passenger"/>
    <trip id="125" depart="1268.00" from="e6to7" to="e15to14" type="passenger"/>
    <trip id="126" depart="1278.00" from="e9to8" to="e8to15" type="passenger"/>
    <trip id="127" depart="1280.00" from="e5to10" to="e11to6" type="passenger"/>
    <trip id="128" depart="1284.00" from="e3to6" to="e14to7" type="passenger"/>
    <trip id="129" depart="1292.00" from="e11to12" to="e8to7" type="passenger"/>
    <trip id="130" depart="1294.00" from="e16to15" to="e15to14" type="passenger"/>
    <trip id="131" depart="1319.00" from="e11to6" to="e5to6" type="passenger"/>
    <trip id="132" depart="1378.00" from="e11to6" to="e15to8" type="passenger"/>
    <trip id="133" depart="1384.00" from="e9to4" to="e13to14" type="passenger"/>
    <trip id="134" depart="1399.00" from="e13to12" to="e11to6" type="passenger"/>
    <trip id="135" depart="1407.00" from="e9to16" to="e2to5" type="passenger"/>
    <trip id="136" depart="1414.00" from="e6to3" to="e10to11" type="passenger"/>
    <trip id="137" depart="1420.00" from="e16to15" to="e9to16" type="passenger"/>
    <trip id="138" depart="1425.00" from="e14to13" to="e12to11" type="passenger"/>
    <trip id="139" depart="1429.00" from="e14to13" to="e12to13" type="passenger"/>
    <trip id="140" depart="1454.00" from="e3to6" to="e9to8" type="passenger"/>
    <trip id="141" depart="1460.00" from="e2to5" to="e8to3" type="passenger"/>
    <trip id="142" depart="1479.00" from="e14to7" to="e6to3" type="passenger"/>
    <trip id="143" depart="1489.00" from="e16to9" to="e14to13" type="passenger"/>
    <trip id="144" depart="1505.00" from="e2to5" to="e10to11" type="passenger"/>
    <trip id="145" depart="1545.00" from="e2to3" to="e7to6" type="passenger"/>
    <trip id="146" depart="1558.00" from="e4to9" to="e8to7" type="passenger"/>
    <trip id="147" depart="1562.00" from="e12to11" to="e10to5" type="passenger"/>
    <trip id="148" depart="1564.00" from="e16to15" to="e8to9" type="passenger"/>
    <trip id="149" depart="1578.00" from="e8to3" to="e7to8" type="passenger"/>
    <trip id="150" depart="1581.00" from="e12to13" to="e10to11" type="passenger"/>
    <trip id="151" depart="1586.00" from="e8to7" to="e7to14" type="passenger"/>
    <trip id="152" depart="1592.00" from="e12to11" to="e2to5" type="passenger"/>
    <trip id="153" depart="1618.00" from="e8to15" to="e3to8" type="passenger"/>
    <trip id="154" depart="1629.00" from="e14to7" to="e2to3" type="passenger"/>
    <trip id="155" depart="1633.00" from="e14to7" to="e6to7" type="passenger"/>
    <trip id="156" depart="1634.00" from="e5to10" to="e3to8" type="passenger"/>
    <trip id="157" depart="1645.00" from="e10to5" to="e12to13" type="passenger"/>
    <trip id="158" depart="1648.00" from="e5to6" to="e15to8" type="passenger"/>
    <trip id="159" depart="1661.00" from="e4to9" to="e6to3" type="passenger"/>
    <trip id="160" depart="1665.00" from="e8to15" to="e7to8" type="passenger"/>
    <trip id="161" depart="1666.00" from="e1to4" to="e8to7" type="passenger"/>
    <trip id="162" depart="1668.00" from="e4to1" to="e8to7" type="passenger"/>
    <trip id="163" depart="1681.00" from="e8to7" to="e7to14" type="passenger"/>
    <trip id="164" depart="1703.00" from="e16to15" to="e8to7" type="passenger"/>
    <trip id="165" depart="1746.00" from="e12to11" to="e10to5" type="passenger"/>
    <trip id="166" depart="1766.00" from="e5to2" to="e2to1" type="passenger"/>
    <trip id="167" depart="1767.00" from="e1to2" to="e14to13" type="passenger"/>
    <trip id="168" depart="1770.00" from="e15to8" to="e2to1" type="passenger"/>
    <trip id="169" depart="1781.00" from="e3to8" to="e12to11" type="passenger"/>
    <trip id="170" depart="1787.00" from="e11to10" to="e6to3" type="passenger"/>
    <trip id="171" depart="1791.00" from="e1to2" to="e6to7" type="passenger"/>
    <trip id="172" depart="1799.00" from="e13to14" to="e2to3" type="passenger"/>
    <trip id="173" depart="1801.00" from="e9to4" to="e3to2" type="passenger"/>
    <trip id="174" depart="1802.00" from="e6to11" to="e3to4" type="passenger"/>
    <trip id="175" depart="1816.00" from="e5to2" to="e2to5" type="passenger"/>
    <trip id="176" depart="1817.00" from="e1to4" to="e10to5" type="passenger"/>
    <trip id="177" depart="1818.00" from="e6to3" to="e13to14" type="passenger"/>
    <trip id="178" depart="1831.00" from="e8to15" to="e10to11" type="passenger"/>
    <trip id="179" depart="1833.00" from="e16to15" to="e7to12" type="passenger"/>
    <trip id="180" depart="1854.00" from="e5to2" to="e13to14" type="passenger"/>
    <trip id="181" depart="1856.00" from="e9to8" to="e9to8" type="passenger"/>
    <trip id="182" depart="1859.00" from="e16to9" to="e1to2" type="passenger"/>
    <trip id="183" depart="1874.00" from="e2to3" to="e12to7" type="passenger"/>
    <trip id="184" depart="1880.00" from="e14to7" to="e2to3" type="passenger"/>
    <trip id="185" depart="1886.00" from="e5to10" to="e3to2" type="passenger"/>
    <trip id="186" depart="1887.00" from="e7to12" to="e14to15" type="passenger"/>
    <trip id="187" depart="1894.00" from="e14to13" to="e11to10" type="passenger"/>
    <trip id="188" depart="1904.00" from="e2to3" to="e3to6" type="passenger"/>
    <trip id="189" depart="1905.00" from="e16to9" to="e3to6" type="passenger"/>
    <trip id="190" depart="1937.00" from="e16to9" to="e11to6" type="passenger"/>
    <trip id="191" depart="1963.00" from="e7to6" to="e8to9" type="passenger"/>
    <trip id="192" depart="1967.00" from="e7to12" to="e8to15" type="passenger"/>
    <trip id="193" depart="1987.00" from="e6to11" to="e10to11" type="passenger"/>
    <trip id="194" depart="1992.00" from="e15to8" to="e15to16" type="passenger"/>
    <trip id="195" depart="2004.00" from="e10to11" to="e13to14" type="passenger"/>
    <trip id="196" depart="2005.00" from="e4to3" to="e2to1" type="passenger"/>
    <trip id="197" depart="2006.00" from="e8to9" to="e3to6" type="passenger"/>
    <trip id="198" depart="2007.00" from="e4to1" to="e11to10" type="passenger"/>
    <trip id="199" depart="2012.00" from="e14to13" to="e3to4" type="passenger"/>
    <trip id="200" depart="2016.00" from="e6to7" to="e6to3" type="passenger"/>
    <trip id="201" depart="2024.00" from="e3to6" to="e14to15" type="passenger"/>
    <trip id="202" depart="2027.00" from="e4to1" to="e13to14" type="passenger"/>
    <trip id="203" depart="2029.00" from="e7to6" to="e8to3" type="passenger"/>
    <trip id="204" depart="2030.00" from="e8to9" to="e16to9" type="passenger"/>
    <trip id="205" depart="2034.00" from="e1to2" to="e11to12" type="passenger"/>
    <trip id="206" depart="2037.00" from="e15to8" to="e4to1" type="passenger"/>
    <trip id="207" depart="2039.00" from="e15to14" to="e7to12" type="passenger"/>
    <trip id="208" depart="2045.00" from="e14to15" to="e6to11" type="passenger"/>
    <trip id="209" depart="2048.00" from="e2to3" to="e9to8" type="passenger"/>
    <trip id="210" depart="2051.00" from="e13to14" to="e13to14" type="passenger"/>
    <trip id="211" depart="2060.00" from="e5to2" to="e16to9" type="passenger"/>
    <trip id="212" depart="2071.00" from="e12to7" to="e6to3" type="passenger"/>
    <trip id="213" depart="2092.00" from="e2to3" to="e9to16" type="passenger"/>
    <trip id="214" depart="2114.00" from="e13to14" to="e14to15" type="passenger"/>
    <trip id="215" depart="2119.00" from="e3to6" to="e8to7" type="passenger"/>
    <trip id="216" depart="2120.00" from="e15to16" to="e8to9" type="passenger"/>
    <trip id="217" depart="2131.00" from="e13to12" to="e6to3" type="passenger"/>
    <trip id="218" depart="2132.00" from="e1to2" to="e14to7" type="passenger"/>
    <trip id="219" depart="2137.00" from="e14to7" to="e10to5" type="passenger"/>
    <trip id="220" depart="2155.00" from="e4to1" to="e5to6" type="passenger"/>
    <trip id="221" depart="2162.00" from="e8to9" to="e5to10" type="passenger"/>
    <trip id="222" depart="2163.00" from="e9to4" to="e12to11" type="passenger"/>
    <trip id="223" depart="2168.00" from="e4to1" to="e9to4" type="passenger"/>
    <trip id="224" depart="2178.00" from="e8to9" to="e2to1" type="passenger"/>
    <trip id="225" depart="2180.00" from="e6to5" to="e1to2" type="passenger"/>
    <trip id="226" depart="2187.00" from="e8to7" to="e3to8" type="passenger"/>
    <trip id="227" depart="2196.00" from="e2to1" to="e12to11" type="passenger"/>
    <trip id="228" depart="2197.00" from="e3to6" to="e9to16" type="passenger"/>
    <trip id="229" depart="2222.00" from="e7to6" to="e9to4" type="passenger"/>
    <trip id="230" depart="2227.00" from="e16to9" to="e9to8" type="passenger"/>
    <trip id="231" depart="2235.00" from="e10to5" to="e12to11" type="passenger"/>
    <trip id="232" depart="2243.00" from="e7to6" to="e12to13" type="passenger"/>
    <trip id="233" depart="2253.00" from="e3to4" to="e6to11" type="passenger"/>
    <trip id="234" depart="2254.00" from="e4to1" to="e3to6" type="passenger"/>
    <trip id="235" depart="2262.00" from="e1to4" to="e9to16" type="passenger"/>
    <trip id="236" depart="2263.00" from="e7to8" to="e15to16" type="passenger"/>
    <trip id="237" depart="2279.00" from="e4to3" to="e9to16" type="passenger"/>
    <trip id="238" depart="2314.00" from="e9to8" to="e15to16" type="passenger"/>
    <trip id="239" depart="2316.00" from="e15to8" to="e11to10" type="passenger"/>
    <trip id="240" depart="2320.00" from="e14to7" to="e8to3" type="passenger"/>
    <trip id="241" depart="2325.00" from="e2to3" to="e14to15" type="passenger"/>
    <trip id="242" depart="2328.00" from="e14to15" to="e4to9" type="passenger"/>
    <trip id="243" depart="2352.00" from="e10to5" to="e8to15" type="passenger"/>
    <trip id="244" depart="2362.00" from="e10to11" to="e3to8" type="passenger"/>
    <trip id="245" depart="2368.00" from="e2to3" to="e14to7" type="passenger"/>
    <trip id="246" depart="2370.00" from="e9to16" to="e9to8" type="passenger"/>
    <trip id="247" depart="2372.00" from="e4to3" to="e8to3" type="passenger"/>
    <trip id="248" depart="2373.00" from="e13to12" to="e3to8" type="passenger"/>
    <trip id="249" depart="2374.00" from="e6to7" to="e15to8" type="passenger"/>
    <trip id="250" depart="2381.00" from="e7to14" to="e8to15" type="passenger"/>
    <trip id="251" depart="2383.00" from="e10to5" to="e8to9" type="passenger"/>
    <trip id="252" depart="2395.00" from="e11to10" to="e3to6" type="passenger"/>
    <trip id="253" depart="2410.00" from="e15to8" to="e3to8" type="passenger"/>
    <trip id="254" depart="2418.00" from="e3to8" to="e2to3" type="passenger"/>
    <trip id="255" depart="2420.00" from="e6to3" to="e11to10" type="passenger"/>
    <trip id="256" depart="2423.00" from="e12to7" to="e16to9" type="passenger"/>
    <trip id="257" depart="2427.00" from="e2to5" to="e6to5" type="passenger"/>
    <trip id="258" depart="2433.00" from="e7to12" to="e9to4" type="passenger"/>
    <trip id="259" depart="2435.00" from="e12to13" to="e3to8" type="passenger"/>
    <trip id="260" depart="2473.00" from="e5to6" to="e6to3" type="passenger"/>
    <trip id="261" depart="2474.00" from="e7to14" to="e5to10" type="passenger"/>
    <trip id="262" depart="2500.00" from="e7to8" to="e14to15" type="passenger"/>
    <trip id="263" depart="2502.00" from="e12to7" to="e13to14" type="passenger"/>
    <trip id="264" depart="2519.00" from="e5to10" to="e11to6" type="passenger"/>
    <trip id="265" depart="2555.00" from="e13to14" to="e11to12" type="passenger"/>
    <trip id="266" depart="2556.00" from="e4to3" to="e16to9" type="passenger"/>
    <trip id="267" depart="2574.00" from="e3to6" to="e11to10" type="passenger"/>
    <trip id="268" depart="2584.00" from="e4to3" to="e13to12" type="passenger"/>
    <trip id="269" depart="2610.00" from="e15to16" to="e14to13" type="passenger"/>
    <trip id="270" depart="2612.00" from="e8to9" to="e10to11" type="passenger"/>
    <trip id="271" depart="2617.00" from="e3to2" to="e1to2" type="passenger"/>
    <trip id="272" depart="2621.00" from="e4to1" to="e14to15" type="passenger"/>
    <trip id="273" depart="2625.00" from="e12to13" to="e2to1" type="passenger"/>
    <trip id="274" depart="2629.00" from="e9to16" to="e9to4" type="passenger"/>
    <trip id="275" depart="2632.00" from="e2to5" to="e5to10" type="passenger"/>
    <trip id="276" depart="2640.00" from="e14to15" to="e1to2" type="passenger"/>
    <trip id="277" depart="2649.00" from="e1to4" to="e7to6" type="passenger"/>
    <trip id="278" depart="2661.00" from="e2to1" to="e7to12" type="passenger"/>
    <trip id="279" depart="2664.00" from="e7to12" to="e7to14" type="passenger"/>
    <trip id="280" depart="2717.00" from="e4to9" to="e14to15" type="passenger"/>
    <trip id="281" depart="2719.00" from="e7to6" to="e16to9" type="passenger"/>
    <trip id="282" depart="2742.00" from="e8to15" to="e3to6" type="passenger"/>
    <trip id="283" depart="2755.00" from="e11to12" to="e9to4" type="passenger"/>
    <trip id="284" depart="2792.00" from="e11to6" to="e7to6" type="passenger"/>
    <trip id="285" depart="2812.00" from="e7to6" to="e9to8" type="passenger"/>
    <trip id="286" depart="2820.00" from="e2to1" to="e2to1" type="passenger"/>
    <trip id="287" depart="2828.00" from="e15to14" to="e8to7" type="passenger"/>
    <trip id="288" depart="2842.00" from="e11to12" to="e14to15" type="passenger"/>
    <trip id="289" depart="2876.00" from="e13to14" to="e15to16" type="passenger"/>
    <trip id="290" depart="2880.00" from="e13to12" to="e9to8" type="passenger"/>
    <trip id="291" depart="2891.00" from="e11to6" to="e5to2" type="passenger"/>
    <trip id="292" depart="2893.00" from="e11to6" to="e4to9" type="passenger"/>
    <trip id="293" depart="2899.00" from="e4to3" to="e8to9" type="passenger"/>
    <trip id="294" depart="2900.00" from="e16to15" to="e14to15" type="passenger"/>
    <trip id="295" depart="2912.00" from="e13to14" to="e13to12" type="passenger"/>
    <trip id="296" depart="2933.00" from="e14to13" to="e14to13" type="passenger"/>
    <trip id="297" depart="2942.00" from="e2to5" to="e5to6" type="passenger"/>
    <trip id="298" depart="2958.00" from="e3to6" to="e7to14" type="passenger"/>
    <trip id="299" depart="2965.00" from="e8to7" to="e4to3" type="passenger"/>
    <trip id="300" depart="2970.00" from="e6to5" to="e3to4" type="passenger"/>
    <trip id="301" depart="2975.00" from="e1to4" to="e13to14" type="passenger"/>
    <trip id="302" depart="2981.00" from="e2to1" to="e13to12" type="passenger"/>
    <trip id="303" depart="2986.00" from="e9to8" to="e7to14" type="passenger"/>
    <trip id="304" depart="3007.00" from="e16to15" to="e15to16" type="passenger"/>
    <trip id="305" depart="3048.00" from="e2to5" to="e6to5" type="passenger"/>
    <trip id="306" depart="3065.00" from="e5to6" to="e16to9" type="passenger"/>
    <trip id="307" depart="3069.00" from="e4to3" to="e16to15" type="passenger"/>
    <trip id="308" depart="3096.00" from="e2to5" to="e4to3" type="passenger"/>
    <trip id="309" depart="3104.00" from="e2to1" to="e6to3" type="passenger"/>
    <trip id="310" depart="3107.00" from="e12to11" to="e8to3" type="passenger"/>
    <trip id="311" depart="3110.00" from="e2to5" to="e5to6" type="passenger"/>
    <trip id="312" depart="3112.00" from="e5to6" to="e7to8" type="passenger"/>
    <trip id="313" depart="3113.00" from="e16to15" to="e7to12" type="passenger"/>
    <trip id="314" depart="3121.00" from="e1to4" to="e9to4" type="passenger"/>
    <trip id="315" depart="3130.00" from="e3to6" to="e16to9" type="passenger"/>
    <trip id="316" depart="3149.00" from="e7to12" to="e4to3" type="passenger"/>
    <trip id="317" depart="3150.00" from="e13to12" to="e3to6" type="passenger"/>
    <trip id="318" depart="3162.00" from="e14to7" to="e1to4" type="passenger"/>
    <trip id="319" depart="3165.00" from="e1to4" to="e2to1" type="passenger"/>
    <trip id="320" depart="3217.00" from="e15to16" to="e9to8" type="passenger"/>
    <trip id="321" depart="3225.00" from="e4to9" to="e10to5" type="passenger"/>
    <trip id="322" depart="3242.00" from="e3to2" to="e16to9" type="passenger"/>
    <trip id="323" depart="3259.00" from="e7to12" to="e6to5" type="passenger"/>
    <trip id="324" depart="3264.00" from="e15to14" to="e11to6" type="passenger"/>
    <trip id="325" depart="3290.00" from="e1to4" to="e2to3" type="passenger"/>
    <trip id="326" depart="3295.00" from="e9to8" to="e14to13" type="passenger"/>
    <trip id="327" depart="3301.00" from="e15to8" to="e15to16" type="passenger"/>
    <trip id="328" depart="3314.00" from="e13to14" to="e13to14" type="passenger"/>
    <trip id="329" depart="3326.00" from="e8to3" to="e12to7" type="passenger"/>
    <trip id="330" depart="3329.00" from="e6to11" to="e4to9" type="passenger"/>
    <trip id="331" depart="3341.00" from="e8to3" to="e7to12" type="passenger"/>
    <trip id="332" depart="3356.00" from="e5to6" to="e7to14" type="passenger"/>
    <trip id="333" depart="3365.00" from="e12to7" to="e3to6" type="passenger"/>
    <trip id="334" depart="3379.00" from="e3to4" to="e8to9" type="passenger"/>
    <trip id="335" depart="3381.00" from="e7to6" to="e16to9" type="passenger"/>
    <trip id="336" depart="3385.00" from="e5to6" to="e2to1" type="passenger"/>
    <trip id="337" depart="3387.00" from="e5to2" to="e9to4" type="passenger"/>
    <trip id="338" depart="3395.00" from="e14to15" to="e4to1" type="passenger"/>
    <trip id="339" depart="3403.00" from="e3to6" to="e5to10" type="passenger"/>
    <trip id="340" depart="3408.00" from="e14to7" to="e13to14" type="passenger"/>
    <trip id="341" depart="3412.00" from="e1to4" to="e2to5" type="passenger"/>
    <trip id="342" depart="3416.00" from="e12to7" to="e11to6" type="passenger"/>
    <trip id="343" depart="3430.00" from="e13to12" to="e16to15" type="passenger"/>
    <trip id="344" depart="3433.00" from="e16to15" to="e12to7" type="passenger"/>
    <trip id="345" depart="3435.00" from="e3to4" to="e12to7" type="passenger"/>
    <trip id="346" depart="3443.00" from="e10to11" to="e14to7" type="passenger"/>
    <trip id="347" depart="3461.00" from="e6to3" to="e14to13" type="passenger"/>
    <trip id="348" depart="3464.00" from="e9to8" to="e4to9" type="passenger"/>
    <trip id="349" depart="3474.00" from="e3to4" to="e14to13" type="passenger"/>
    <trip id="350" depart="3480.00" from="e7to14" to="e5to2" type="passenger"/>
    <trip id="351" depart="3485.00" from="e7to8" to="e3to8" type="passenger"/>
    <trip id="352" depart="3492.00" from="e13to14" to="e4to1" type="passenger"/>
    <trip id="353" depart="3532.00" from="e7to14" to="e14to7" type="passenger"/>
    <trip id="354" depart="3539.00" from="e1to4" to="e6to7" type="passenger"/>
    <trip id="355" depart="3543.00" from="e2to3" to="e6to3" type="passenger"/>
    <trip id="356" depart="3565.00" from="e5to6" to="e2to5" type="passenger"/>
    <trip id="357" depart="3571.00" from="e7to12" to="e10to5" type="passenger"/>
    <trip id="358" depart="3576.00" from="e2to5" to="e12to11" type="passenger"/>
    <trip id="359" depart="3592.00" from="e10to5" to="e9to4" type="passenger"/>
</routes>
