

<types xmlns:xsi="http://www.w3.org/2001/XMLSchema-instance" xsi:noNamespaceSchemaLocation="http://sumo.dlr.de/xsd/types_file.xsd">

    <type id="normal_road" priority="0" numLanes="1" speed="13.9"/>

</types>