<?xml version="1.0" encoding="UTF-8"?>

<!-- generated on Thu Dec 31 16:24:04 2020 by Eclipse SUMO netconvert Version 1.8.0
<configuration xmlns:xsi="http://www.w3.org/2001/XMLSchema-instance" xsi:noNamespaceSchemaLocation="http://sumo.dlr.de/xsd/netconvertConfiguration.xsd">

    <input>
        <node-files value="/Users/Matteo/PycharmProjects/TrafficEmu/sumo_grid_simulation/simulation_input_files/grid_plain_xml/nodes.nod.xml"/>
        <edge-files value="/Users/Matteo/PycharmProjects/TrafficEmu/sumo_grid_simulation/simulation_input_files/grid_plain_xml/edges.edg.xml"/>
        <type-files value="/Users/Matteo/PycharmProjects/TrafficEmu/sumo_grid_simulation/simulation_input_files/grid_plain_xml/edge_types.typ.xml"/>
    </input>

    <output>
        <output-file value="/Users/Matteo/PycharmProjects/TrafficEmu/sumo_grid_simulation/simulation_input_files/grid.net.xml"/>
    </output>

    <report>
        <aggregate-warnings value="5"/>
    </report>

</configuration>
-->

<net version="1.6" junctionCornerDetail="5" limitTurnSpeed="5.50" xmlns:xsi="http://www.w3.org/2001/XMLSchema-instance" xsi:noNamespaceSchemaLocation="http://sumo.dlr.de/xsd/net_file.xsd">

    <location netOffset="200.00,200.00" convBoundary="0.00,0.00,800.00,800.00" origBoundary="-200.00,-200.00,600.00,600.00" projParameter="!"/>

    <type id="normal_road" priority="0" numLanes="1" speed="13.90"/>
    <type id="normal_road_2lanes" priority="0" numLanes="2" speed="13.90"/>
    <type id="normal_road_3lanes" priority="0" numLanes="3" speed="13.90"/>
    <type id="normal_road_4lanes" priority="0" numLanes="4" speed="13.90"/>

    <edge id=":n1_0" function="internal">
        <lane id=":n1_0_0" index="0" speed="6.51" length="9.03" shape="198.40,207.20 198.05,204.75 197.00,203.00 195.25,201.95 192.80,201.60"/>
    </edge>
    <edge id=":n1_1" function="internal">
        <lane id=":n1_1_0" index="0" speed="11.39" length="14.40" shape="198.40,207.20 198.40,192.80"/>
    </edge>
    <edge id=":n1_2" function="internal">
        <lane id=":n1_2_0" index="0" speed="8.00" length="5.93" shape="198.40,207.20 198.95,203.35 200.00,201.60"/>
    </edge>
    <edge id=":n1_3" function="internal">
        <lane id=":n1_3_0" index="0" speed="3.65" length="2.34" shape="198.40,207.20 199.20,206.00 200.00,205.60"/>
    </edge>
    <edge id=":n1_16" function="internal">
        <lane id=":n1_16_0" index="0" speed="8.00" length="8.26" shape="200.00,201.60 200.60,200.60 203.35,198.95 207.20,198.40"/>
    </edge>
    <edge id=":n1_17" function="internal">
        <lane id=":n1_17_0" index="0" speed="3.65" length="2.34" shape="200.00,205.60 200.80,206.00 201.60,207.20"/>
    </edge>
    <edge id=":n1_4" function="internal">
        <lane id=":n1_4_0" index="0" speed="6.51" length="9.03" shape="207.20,201.60 204.75,201.95 203.00,203.00 201.95,204.75 201.60,207.20"/>
    </edge>
    <edge id=":n1_5" function="internal">
        <lane id=":n1_5_0" index="0" speed="11.39" length="14.40" shape="207.20,201.60 192.80,201.60"/>
    </edge>
    <edge id=":n1_6" function="internal">
        <lane id=":n1_6_0" index="0" speed="8.00" length="14.19" shape="207.20,201.60 203.35,201.05 200.60,199.40 198.95,196.65 198.40,192.80"/>
    </edge>
    <edge id=":n1_7" function="internal">
        <lane id=":n1_7_0" index="0" speed="3.65" length="4.67" shape="207.20,201.60 206.00,200.80 205.60,200.00 206.00,199.20 207.20,198.40"/>
    </edge>
    <edge id=":n1_8" function="internal">
        <lane id=":n1_8_0" index="0" speed="6.51" length="9.03" shape="201.60,192.80 201.95,195.25 203.00,197.00 204.75,198.05 207.20,198.40"/>
    </edge>
    <edge id=":n1_9" function="internal">
        <lane id=":n1_9_0" index="0" speed="11.39" length="14.40" shape="201.60,192.80 201.60,207.20"/>
    </edge>
    <edge id=":n1_10" function="internal">
        <lane id=":n1_10_0" index="0" speed="8.00" length="5.93" shape="201.60,192.80 201.05,196.65 200.00,198.40"/>
    </edge>
    <edge id=":n1_11" function="internal">
        <lane id=":n1_11_0" index="0" speed="3.65" length="2.34" shape="201.60,192.80 200.80,194.00 200.00,194.40"/>
    </edge>
    <edge id=":n1_18" function="internal">
        <lane id=":n1_18_0" index="0" speed="8.00" length="8.26" shape="200.00,198.40 199.40,199.40 196.65,201.05 192.80,201.60"/>
    </edge>
    <edge id=":n1_19" function="internal">
        <lane id=":n1_19_0" index="0" speed="3.65" length="2.34" shape="200.00,194.40 199.20,194.00 198.40,192.80"/>
    </edge>
    <edge id=":n1_12" function="internal">
        <lane id=":n1_12_0" index="0" speed="6.51" length="9.03" shape="192.80,198.40 195.25,198.05 197.00,197.00 198.05,195.25 198.40,192.80"/>
    </edge>
    <edge id=":n1_13" function="internal">
        <lane id=":n1_13_0" index="0" speed="11.39" length="14.40" shape="192.80,198.40 207.20,198.40"/>
    </edge>
    <edge id=":n1_14" function="internal">
        <lane id=":n1_14_0" index="0" speed="8.00" length="14.19" shape="192.80,198.40 196.65,198.95 199.40,200.60 201.05,203.35 201.60,207.20"/>
    </edge>
    <edge id=":n1_15" function="internal">
        <lane id=":n1_15_0" index="0" speed="3.65" length="4.67" shape="192.80,198.40 194.00,199.20 194.40,200.00 194.00,200.80 192.80,201.60"/>
    </edge>
    <edge id=":n2_0" function="internal">
        <lane id=":n2_0_0" index="0" speed="6.51" length="9.03" shape="398.40,207.20 398.05,204.75 397.00,203.00 395.25,201.95 392.80,201.60"/>
    </edge>
    <edge id=":n2_1" function="internal">
        <lane id=":n2_1_0" index="0" speed="11.39" length="14.40" shape="398.40,207.20 398.40,192.80"/>
    </edge>
    <edge id=":n2_2" function="internal">
        <lane id=":n2_2_0" index="0" speed="8.00" length="5.93" shape="398.40,207.20 398.95,203.35 400.00,201.60"/>
    </edge>
    <edge id=":n2_3" function="internal">
        <lane id=":n2_3_0" index="0" speed="3.65" length="2.34" shape="398.40,207.20 399.20,206.00 400.00,205.60"/>
    </edge>
    <edge id=":n2_16" function="internal">
        <lane id=":n2_16_0" index="0" speed="8.00" length="8.26" shape="400.00,201.60 400.60,200.60 403.35,198.95 407.20,198.40"/>
    </edge>
    <edge id=":n2_17" function="internal">
        <lane id=":n2_17_0" index="0" speed="3.65" length="2.34" shape="400.00,205.60 400.80,206.00 401.60,207.20"/>
    </edge>
    <edge id=":n2_4" function="internal">
        <lane id=":n2_4_0" index="0" speed="6.51" length="9.03" shape="407.20,201.60 404.75,201.95 403.00,203.00 401.95,204.75 401.60,207.20"/>
    </edge>
    <edge id=":n2_5" function="internal">
        <lane id=":n2_5_0" index="0" speed="11.39" length="14.40" shape="407.20,201.60 392.80,201.60"/>
    </edge>
    <edge id=":n2_6" function="internal">
        <lane id=":n2_6_0" index="0" speed="8.00" length="14.19" shape="407.20,201.60 403.35,201.05 400.60,199.40 398.95,196.65 398.40,192.80"/>
    </edge>
    <edge id=":n2_7" function="internal">
        <lane id=":n2_7_0" index="0" speed="3.65" length="4.67" shape="407.20,201.60 406.00,200.80 405.60,200.00 406.00,199.20 407.20,198.40"/>
    </edge>
    <edge id=":n2_8" function="internal">
        <lane id=":n2_8_0" index="0" speed="6.51" length="9.03" shape="401.60,192.80 401.95,195.25 403.00,197.00 404.75,198.05 407.20,198.40"/>
    </edge>
    <edge id=":n2_9" function="internal">
        <lane id=":n2_9_0" index="0" speed="11.39" length="14.40" shape="401.60,192.80 401.60,207.20"/>
    </edge>
    <edge id=":n2_10" function="internal">
        <lane id=":n2_10_0" index="0" speed="8.00" length="5.93" shape="401.60,192.80 401.05,196.65 400.00,198.40"/>
    </edge>
    <edge id=":n2_11" function="internal">
        <lane id=":n2_11_0" index="0" speed="3.65" length="2.34" shape="401.60,192.80 400.80,194.00 400.00,194.40"/>
    </edge>
    <edge id=":n2_18" function="internal">
        <lane id=":n2_18_0" index="0" speed="8.00" length="8.26" shape="400.00,198.40 399.40,199.40 396.65,201.05 392.80,201.60"/>
    </edge>
    <edge id=":n2_19" function="internal">
        <lane id=":n2_19_0" index="0" speed="3.65" length="2.34" shape="400.00,194.40 399.20,194.00 398.40,192.80"/>
    </edge>
    <edge id=":n2_12" function="internal">
        <lane id=":n2_12_0" index="0" speed="6.51" length="9.03" shape="392.80,198.40 395.25,198.05 397.00,197.00 398.05,195.25 398.40,192.80"/>
    </edge>
    <edge id=":n2_13" function="internal">
        <lane id=":n2_13_0" index="0" speed="11.39" length="14.40" shape="392.80,198.40 407.20,198.40"/>
    </edge>
    <edge id=":n2_14" function="internal">
        <lane id=":n2_14_0" index="0" speed="8.00" length="14.19" shape="392.80,198.40 396.65,198.95 399.40,200.60 401.05,203.35 401.60,207.20"/>
    </edge>
    <edge id=":n2_15" function="internal">
        <lane id=":n2_15_0" index="0" speed="3.65" length="4.67" shape="392.80,198.40 394.00,199.20 394.40,200.00 394.00,200.80 392.80,201.60"/>
    </edge>
    <edge id=":n3_0" function="internal">
        <lane id=":n3_0_0" index="0" speed="6.51" length="9.03" shape="398.40,407.20 398.05,404.75 397.00,403.00 395.25,401.95 392.80,401.60"/>
    </edge>
    <edge id=":n3_1" function="internal">
        <lane id=":n3_1_0" index="0" speed="11.39" length="14.40" shape="398.40,407.20 398.40,392.80"/>
    </edge>
    <edge id=":n3_2" function="internal">
        <lane id=":n3_2_0" index="0" speed="8.00" length="5.93" shape="398.40,407.20 398.95,403.35 400.00,401.60"/>
    </edge>
    <edge id=":n3_3" function="internal">
        <lane id=":n3_3_0" index="0" speed="3.65" length="2.34" shape="398.40,407.20 399.20,406.00 400.00,405.60"/>
    </edge>
    <edge id=":n3_16" function="internal">
        <lane id=":n3_16_0" index="0" speed="8.00" length="8.26" shape="400.00,401.60 400.60,400.60 403.35,398.95 407.20,398.40"/>
    </edge>
    <edge id=":n3_17" function="internal">
        <lane id=":n3_17_0" index="0" speed="3.65" length="2.34" shape="400.00,405.60 400.80,406.00 401.60,407.20"/>
    </edge>
    <edge id=":n3_4" function="internal">
        <lane id=":n3_4_0" index="0" speed="6.51" length="9.03" shape="407.20,401.60 404.75,401.95 403.00,403.00 401.95,404.75 401.60,407.20"/>
    </edge>
    <edge id=":n3_5" function="internal">
        <lane id=":n3_5_0" index="0" speed="11.39" length="14.40" shape="407.20,401.60 392.80,401.60"/>
    </edge>
    <edge id=":n3_6" function="internal">
        <lane id=":n3_6_0" index="0" speed="8.00" length="14.19" shape="407.20,401.60 403.35,401.05 400.60,399.40 398.95,396.65 398.40,392.80"/>
    </edge>
    <edge id=":n3_7" function="internal">
        <lane id=":n3_7_0" index="0" speed="3.65" length="4.67" shape="407.20,401.60 406.00,400.80 405.60,400.00 406.00,399.20 407.20,398.40"/>
    </edge>
    <edge id=":n3_8" function="internal">
        <lane id=":n3_8_0" index="0" speed="6.51" length="9.03" shape="401.60,392.80 401.95,395.25 403.00,397.00 404.75,398.05 407.20,398.40"/>
    </edge>
    <edge id=":n3_9" function="internal">
        <lane id=":n3_9_0" index="0" speed="11.39" length="14.40" shape="401.60,392.80 401.60,407.20"/>
    </edge>
    <edge id=":n3_10" function="internal">
        <lane id=":n3_10_0" index="0" speed="8.00" length="5.93" shape="401.60,392.80 401.05,396.65 400.00,398.40"/>
    </edge>
    <edge id=":n3_11" function="internal">
        <lane id=":n3_11_0" index="0" speed="3.65" length="2.34" shape="401.60,392.80 400.80,394.00 400.00,394.40"/>
    </edge>
    <edge id=":n3_18" function="internal">
        <lane id=":n3_18_0" index="0" speed="8.00" length="8.26" shape="400.00,398.40 399.40,399.40 396.65,401.05 392.80,401.60"/>
    </edge>
    <edge id=":n3_19" function="internal">
        <lane id=":n3_19_0" index="0" speed="3.65" length="2.34" shape="400.00,394.40 399.20,394.00 398.40,392.80"/>
    </edge>
    <edge id=":n3_12" function="internal">
        <lane id=":n3_12_0" index="0" speed="6.51" length="9.03" shape="392.80,398.40 395.25,398.05 397.00,397.00 398.05,395.25 398.40,392.80"/>
    </edge>
    <edge id=":n3_13" function="internal">
        <lane id=":n3_13_0" index="0" speed="11.39" length="14.40" shape="392.80,398.40 407.20,398.40"/>
    </edge>
    <edge id=":n3_14" function="internal">
        <lane id=":n3_14_0" index="0" speed="8.00" length="14.19" shape="392.80,398.40 396.65,398.95 399.40,400.60 401.05,403.35 401.60,407.20"/>
    </edge>
    <edge id=":n3_15" function="internal">
        <lane id=":n3_15_0" index="0" speed="3.65" length="4.67" shape="392.80,398.40 394.00,399.20 394.40,400.00 394.00,400.80 392.80,401.60"/>
    </edge>
    <edge id=":n4_0" function="internal">
        <lane id=":n4_0_0" index="0" speed="6.51" length="9.03" shape="198.40,407.20 198.05,404.75 197.00,403.00 195.25,401.95 192.80,401.60"/>
    </edge>
    <edge id=":n4_1" function="internal">
        <lane id=":n4_1_0" index="0" speed="11.39" length="14.40" shape="198.40,407.20 198.40,392.80"/>
    </edge>
    <edge id=":n4_2" function="internal">
        <lane id=":n4_2_0" index="0" speed="8.00" length="5.93" shape="198.40,407.20 198.95,403.35 200.00,401.60"/>
    </edge>
    <edge id=":n4_3" function="internal">
        <lane id=":n4_3_0" index="0" speed="3.65" length="2.34" shape="198.40,407.20 199.20,406.00 200.00,405.60"/>
    </edge>
    <edge id=":n4_16" function="internal">
        <lane id=":n4_16_0" index="0" speed="8.00" length="8.26" shape="200.00,401.60 200.60,400.60 203.35,398.95 207.20,398.40"/>
    </edge>
    <edge id=":n4_17" function="internal">
        <lane id=":n4_17_0" index="0" speed="3.65" length="2.34" shape="200.00,405.60 200.80,406.00 201.60,407.20"/>
    </edge>
    <edge id=":n4_4" function="internal">
        <lane id=":n4_4_0" index="0" speed="6.51" length="9.03" shape="207.20,401.60 204.75,401.95 203.00,403.00 201.95,404.75 201.60,407.20"/>
    </edge>
    <edge id=":n4_5" function="internal">
        <lane id=":n4_5_0" index="0" speed="11.39" length="14.40" shape="207.20,401.60 192.80,401.60"/>
    </edge>
    <edge id=":n4_6" function="internal">
        <lane id=":n4_6_0" index="0" speed="8.00" length="14.19" shape="207.20,401.60 203.35,401.05 200.60,399.40 198.95,396.65 198.40,392.80"/>
    </edge>
    <edge id=":n4_7" function="internal">
        <lane id=":n4_7_0" index="0" speed="3.65" length="4.67" shape="207.20,401.60 206.00,400.80 205.60,400.00 206.00,399.20 207.20,398.40"/>
    </edge>
    <edge id=":n4_8" function="internal">
        <lane id=":n4_8_0" index="0" speed="6.51" length="9.03" shape="201.60,392.80 201.95,395.25 203.00,397.00 204.75,398.05 207.20,398.40"/>
    </edge>
    <edge id=":n4_9" function="internal">
        <lane id=":n4_9_0" index="0" speed="11.39" length="14.40" shape="201.60,392.80 201.60,407.20"/>
    </edge>
    <edge id=":n4_10" function="internal">
        <lane id=":n4_10_0" index="0" speed="8.00" length="5.93" shape="201.60,392.80 201.05,396.65 200.00,398.40"/>
    </edge>
    <edge id=":n4_11" function="internal">
        <lane id=":n4_11_0" index="0" speed="3.65" length="2.34" shape="201.60,392.80 200.80,394.00 200.00,394.40"/>
    </edge>
    <edge id=":n4_18" function="internal">
        <lane id=":n4_18_0" index="0" speed="8.00" length="8.26" shape="200.00,398.40 199.40,399.40 196.65,401.05 192.80,401.60"/>
    </edge>
    <edge id=":n4_19" function="internal">
        <lane id=":n4_19_0" index="0" speed="3.65" length="2.34" shape="200.00,394.40 199.20,394.00 198.40,392.80"/>
    </edge>
    <edge id=":n4_12" function="internal">
        <lane id=":n4_12_0" index="0" speed="6.51" length="9.03" shape="192.80,398.40 195.25,398.05 197.00,397.00 198.05,395.25 198.40,392.80"/>
    </edge>
    <edge id=":n4_13" function="internal">
        <lane id=":n4_13_0" index="0" speed="11.39" length="14.40" shape="192.80,398.40 207.20,398.40"/>
    </edge>
    <edge id=":n4_14" function="internal">
        <lane id=":n4_14_0" index="0" speed="8.00" length="14.19" shape="192.80,398.40 196.65,398.95 199.40,400.60 201.05,403.35 201.60,407.20"/>
    </edge>
    <edge id=":n4_15" function="internal">
        <lane id=":n4_15_0" index="0" speed="3.65" length="4.67" shape="192.80,398.40 194.00,399.20 194.40,400.00 194.00,400.80 192.80,401.60"/>
    </edge>
    <edge id=":n5_0" function="internal">
        <lane id=":n5_0_0" index="0" speed="6.51" length="9.03" shape="598.40,207.20 598.05,204.75 597.00,203.00 595.25,201.95 592.80,201.60"/>
    </edge>
    <edge id=":n5_1" function="internal">
        <lane id=":n5_1_0" index="0" speed="11.39" length="14.40" shape="598.40,207.20 598.40,192.80"/>
    </edge>
    <edge id=":n5_2" function="internal">
        <lane id=":n5_2_0" index="0" speed="8.00" length="5.93" shape="598.40,207.20 598.95,203.35 600.00,201.60"/>
    </edge>
    <edge id=":n5_3" function="internal">
        <lane id=":n5_3_0" index="0" speed="3.65" length="2.34" shape="598.40,207.20 599.20,206.00 600.00,205.60"/>
    </edge>
    <edge id=":n5_16" function="internal">
        <lane id=":n5_16_0" index="0" speed="8.00" length="8.26" shape="600.00,201.60 600.60,200.60 603.35,198.95 607.20,198.40"/>
    </edge>
    <edge id=":n5_17" function="internal">
        <lane id=":n5_17_0" index="0" speed="3.65" length="2.34" shape="600.00,205.60 600.80,206.00 601.60,207.20"/>
    </edge>
    <edge id=":n5_4" function="internal">
        <lane id=":n5_4_0" index="0" speed="6.51" length="9.03" shape="607.20,201.60 604.75,201.95 603.00,203.00 601.95,204.75 601.60,207.20"/>
    </edge>
    <edge id=":n5_5" function="internal">
        <lane id=":n5_5_0" index="0" speed="11.39" length="14.40" shape="607.20,201.60 592.80,201.60"/>
    </edge>
    <edge id=":n5_6" function="internal">
        <lane id=":n5_6_0" index="0" speed="8.00" length="14.19" shape="607.20,201.60 603.35,201.05 600.60,199.40 598.95,196.65 598.40,192.80"/>
    </edge>
    <edge id=":n5_7" function="internal">
        <lane id=":n5_7_0" index="0" speed="3.65" length="4.67" shape="607.20,201.60 606.00,200.80 605.60,200.00 606.00,199.20 607.20,198.40"/>
    </edge>
    <edge id=":n5_8" function="internal">
        <lane id=":n5_8_0" index="0" speed="6.51" length="9.03" shape="601.60,192.80 601.95,195.25 603.00,197.00 604.75,198.05 607.20,198.40"/>
    </edge>
    <edge id=":n5_9" function="internal">
        <lane id=":n5_9_0" index="0" speed="11.39" length="14.40" shape="601.60,192.80 601.60,207.20"/>
    </edge>
    <edge id=":n5_10" function="internal">
        <lane id=":n5_10_0" index="0" speed="8.00" length="5.93" shape="601.60,192.80 601.05,196.65 600.00,198.40"/>
    </edge>
    <edge id=":n5_11" function="internal">
        <lane id=":n5_11_0" index="0" speed="3.65" length="2.34" shape="601.60,192.80 600.80,194.00 600.00,194.40"/>
    </edge>
    <edge id=":n5_18" function="internal">
        <lane id=":n5_18_0" index="0" speed="8.00" length="8.26" shape="600.00,198.40 599.40,199.40 596.65,201.05 592.80,201.60"/>
    </edge>
    <edge id=":n5_19" function="internal">
        <lane id=":n5_19_0" index="0" speed="3.65" length="2.34" shape="600.00,194.40 599.20,194.00 598.40,192.80"/>
    </edge>
    <edge id=":n5_12" function="internal">
        <lane id=":n5_12_0" index="0" speed="6.51" length="9.03" shape="592.80,198.40 595.25,198.05 597.00,197.00 598.05,195.25 598.40,192.80"/>
    </edge>
    <edge id=":n5_13" function="internal">
        <lane id=":n5_13_0" index="0" speed="11.39" length="14.40" shape="592.80,198.40 607.20,198.40"/>
    </edge>
    <edge id=":n5_14" function="internal">
        <lane id=":n5_14_0" index="0" speed="8.00" length="14.19" shape="592.80,198.40 596.65,198.95 599.40,200.60 601.05,203.35 601.60,207.20"/>
    </edge>
    <edge id=":n5_15" function="internal">
        <lane id=":n5_15_0" index="0" speed="3.65" length="4.67" shape="592.80,198.40 594.00,199.20 594.40,200.00 594.00,200.80 592.80,201.60"/>
    </edge>
    <edge id=":n6_0" function="internal">
        <lane id=":n6_0_0" index="0" speed="6.51" length="9.03" shape="598.40,407.20 598.05,404.75 597.00,403.00 595.25,401.95 592.80,401.60"/>
    </edge>
    <edge id=":n6_1" function="internal">
        <lane id=":n6_1_0" index="0" speed="11.39" length="14.40" shape="598.40,407.20 598.40,392.80"/>
    </edge>
    <edge id=":n6_2" function="internal">
        <lane id=":n6_2_0" index="0" speed="8.00" length="5.93" shape="598.40,407.20 598.95,403.35 600.00,401.60"/>
    </edge>
    <edge id=":n6_3" function="internal">
        <lane id=":n6_3_0" index="0" speed="3.65" length="2.34" shape="598.40,407.20 599.20,406.00 600.00,405.60"/>
    </edge>
    <edge id=":n6_16" function="internal">
        <lane id=":n6_16_0" index="0" speed="8.00" length="8.26" shape="600.00,401.60 600.60,400.60 603.35,398.95 607.20,398.40"/>
    </edge>
    <edge id=":n6_17" function="internal">
        <lane id=":n6_17_0" index="0" speed="3.65" length="2.34" shape="600.00,405.60 600.80,406.00 601.60,407.20"/>
    </edge>
    <edge id=":n6_4" function="internal">
        <lane id=":n6_4_0" index="0" speed="6.51" length="9.03" shape="607.20,401.60 604.75,401.95 603.00,403.00 601.95,404.75 601.60,407.20"/>
    </edge>
    <edge id=":n6_5" function="internal">
        <lane id=":n6_5_0" index="0" speed="11.39" length="14.40" shape="607.20,401.60 592.80,401.60"/>
    </edge>
    <edge id=":n6_6" function="internal">
        <lane id=":n6_6_0" index="0" speed="8.00" length="14.19" shape="607.20,401.60 603.35,401.05 600.60,399.40 598.95,396.65 598.40,392.80"/>
    </edge>
    <edge id=":n6_7" function="internal">
        <lane id=":n6_7_0" index="0" speed="3.65" length="4.67" shape="607.20,401.60 606.00,400.80 605.60,400.00 606.00,399.20 607.20,398.40"/>
    </edge>
    <edge id=":n6_8" function="internal">
        <lane id=":n6_8_0" index="0" speed="6.51" length="9.03" shape="601.60,392.80 601.95,395.25 603.00,397.00 604.75,398.05 607.20,398.40"/>
    </edge>
    <edge id=":n6_9" function="internal">
        <lane id=":n6_9_0" index="0" speed="11.39" length="14.40" shape="601.60,392.80 601.60,407.20"/>
    </edge>
    <edge id=":n6_10" function="internal">
        <lane id=":n6_10_0" index="0" speed="8.00" length="5.93" shape="601.60,392.80 601.05,396.65 600.00,398.40"/>
    </edge>
    <edge id=":n6_11" function="internal">
        <lane id=":n6_11_0" index="0" speed="3.65" length="2.34" shape="601.60,392.80 600.80,394.00 600.00,394.40"/>
    </edge>
    <edge id=":n6_18" function="internal">
        <lane id=":n6_18_0" index="0" speed="8.00" length="8.26" shape="600.00,398.40 599.40,399.40 596.65,401.05 592.80,401.60"/>
    </edge>
    <edge id=":n6_19" function="internal">
        <lane id=":n6_19_0" index="0" speed="3.65" length="2.34" shape="600.00,394.40 599.20,394.00 598.40,392.80"/>
    </edge>
    <edge id=":n6_12" function="internal">
        <lane id=":n6_12_0" index="0" speed="6.51" length="9.03" shape="592.80,398.40 595.25,398.05 597.00,397.00 598.05,395.25 598.40,392.80"/>
    </edge>
    <edge id=":n6_13" function="internal">
        <lane id=":n6_13_0" index="0" speed="11.39" length="14.40" shape="592.80,398.40 607.20,398.40"/>
    </edge>
    <edge id=":n6_14" function="internal">
        <lane id=":n6_14_0" index="0" speed="8.00" length="14.19" shape="592.80,398.40 596.65,398.95 599.40,400.60 601.05,403.35 601.60,407.20"/>
    </edge>
    <edge id=":n6_15" function="internal">
        <lane id=":n6_15_0" index="0" speed="3.65" length="4.67" shape="592.80,398.40 594.00,399.20 594.40,400.00 594.00,400.80 592.80,401.60"/>
    </edge>
    <edge id=":n7_0" function="internal">
        <lane id=":n7_0_0" index="0" speed="6.51" length="9.03" shape="598.40,607.20 598.05,604.75 597.00,603.00 595.25,601.95 592.80,601.60"/>
    </edge>
    <edge id=":n7_1" function="internal">
        <lane id=":n7_1_0" index="0" speed="11.39" length="14.40" shape="598.40,607.20 598.40,592.80"/>
    </edge>
    <edge id=":n7_2" function="internal">
        <lane id=":n7_2_0" index="0" speed="8.00" length="5.93" shape="598.40,607.20 598.95,603.35 600.00,601.60"/>
    </edge>
    <edge id=":n7_3" function="internal">
        <lane id=":n7_3_0" index="0" speed="3.65" length="2.34" shape="598.40,607.20 599.20,606.00 600.00,605.60"/>
    </edge>
    <edge id=":n7_16" function="internal">
        <lane id=":n7_16_0" index="0" speed="8.00" length="8.26" shape="600.00,601.60 600.60,600.60 603.35,598.95 607.20,598.40"/>
    </edge>
    <edge id=":n7_17" function="internal">
        <lane id=":n7_17_0" index="0" speed="3.65" length="2.34" shape="600.00,605.60 600.80,606.00 601.60,607.20"/>
    </edge>
    <edge id=":n7_4" function="internal">
        <lane id=":n7_4_0" index="0" speed="6.51" length="9.03" shape="607.20,601.60 604.75,601.95 603.00,603.00 601.95,604.75 601.60,607.20"/>
    </edge>
    <edge id=":n7_5" function="internal">
        <lane id=":n7_5_0" index="0" speed="11.39" length="14.40" shape="607.20,601.60 592.80,601.60"/>
    </edge>
    <edge id=":n7_6" function="internal">
        <lane id=":n7_6_0" index="0" speed="8.00" length="14.19" shape="607.20,601.60 603.35,601.05 600.60,599.40 598.95,596.65 598.40,592.80"/>
    </edge>
    <edge id=":n7_7" function="internal">
        <lane id=":n7_7_0" index="0" speed="3.65" length="4.67" shape="607.20,601.60 606.00,600.80 605.60,600.00 606.00,599.20 607.20,598.40"/>
    </edge>
    <edge id=":n7_8" function="internal">
        <lane id=":n7_8_0" index="0" speed="6.51" length="9.03" shape="601.60,592.80 601.95,595.25 603.00,597.00 604.75,598.05 607.20,598.40"/>
    </edge>
    <edge id=":n7_9" function="internal">
        <lane id=":n7_9_0" index="0" speed="11.39" length="14.40" shape="601.60,592.80 601.60,607.20"/>
    </edge>
    <edge id=":n7_10" function="internal">
        <lane id=":n7_10_0" index="0" speed="8.00" length="5.93" shape="601.60,592.80 601.05,596.65 600.00,598.40"/>
    </edge>
    <edge id=":n7_11" function="internal">
        <lane id=":n7_11_0" index="0" speed="3.65" length="2.34" shape="601.60,592.80 600.80,594.00 600.00,594.40"/>
    </edge>
    <edge id=":n7_18" function="internal">
        <lane id=":n7_18_0" index="0" speed="8.00" length="8.26" shape="600.00,598.40 599.40,599.40 596.65,601.05 592.80,601.60"/>
    </edge>
    <edge id=":n7_19" function="internal">
        <lane id=":n7_19_0" index="0" speed="3.65" length="2.34" shape="600.00,594.40 599.20,594.00 598.40,592.80"/>
    </edge>
    <edge id=":n7_12" function="internal">
        <lane id=":n7_12_0" index="0" speed="6.51" length="9.03" shape="592.80,598.40 595.25,598.05 597.00,597.00 598.05,595.25 598.40,592.80"/>
    </edge>
    <edge id=":n7_13" function="internal">
        <lane id=":n7_13_0" index="0" speed="11.39" length="14.40" shape="592.80,598.40 607.20,598.40"/>
    </edge>
    <edge id=":n7_14" function="internal">
        <lane id=":n7_14_0" index="0" speed="8.00" length="14.19" shape="592.80,598.40 596.65,598.95 599.40,600.60 601.05,603.35 601.60,607.20"/>
    </edge>
    <edge id=":n7_15" function="internal">
        <lane id=":n7_15_0" index="0" speed="3.65" length="4.67" shape="592.80,598.40 594.00,599.20 594.40,600.00 594.00,600.80 592.80,601.60"/>
    </edge>
    <edge id=":n8_0" function="internal">
        <lane id=":n8_0_0" index="0" speed="6.51" length="9.03" shape="398.40,607.20 398.05,604.75 397.00,603.00 395.25,601.95 392.80,601.60"/>
    </edge>
    <edge id=":n8_1" function="internal">
        <lane id=":n8_1_0" index="0" speed="11.39" length="14.40" shape="398.40,607.20 398.40,592.80"/>
    </edge>
    <edge id=":n8_2" function="internal">
        <lane id=":n8_2_0" index="0" speed="8.00" length="5.93" shape="398.40,607.20 398.95,603.35 400.00,601.60"/>
    </edge>
    <edge id=":n8_3" function="internal">
        <lane id=":n8_3_0" index="0" speed="3.65" length="2.34" shape="398.40,607.20 399.20,606.00 400.00,605.60"/>
    </edge>
    <edge id=":n8_16" function="internal">
        <lane id=":n8_16_0" index="0" speed="8.00" length="8.26" shape="400.00,601.60 400.60,600.60 403.35,598.95 407.20,598.40"/>
    </edge>
    <edge id=":n8_17" function="internal">
        <lane id=":n8_17_0" index="0" speed="3.65" length="2.34" shape="400.00,605.60 400.80,606.00 401.60,607.20"/>
    </edge>
    <edge id=":n8_4" function="internal">
        <lane id=":n8_4_0" index="0" speed="6.51" length="9.03" shape="407.20,601.60 404.75,601.95 403.00,603.00 401.95,604.75 401.60,607.20"/>
    </edge>
    <edge id=":n8_5" function="internal">
        <lane id=":n8_5_0" index="0" speed="11.39" length="14.40" shape="407.20,601.60 392.80,601.60"/>
    </edge>
    <edge id=":n8_6" function="internal">
        <lane id=":n8_6_0" index="0" speed="8.00" length="14.19" shape="407.20,601.60 403.35,601.05 400.60,599.40 398.95,596.65 398.40,592.80"/>
    </edge>
    <edge id=":n8_7" function="internal">
        <lane id=":n8_7_0" index="0" speed="3.65" length="4.67" shape="407.20,601.60 406.00,600.80 405.60,600.00 406.00,599.20 407.20,598.40"/>
    </edge>
    <edge id=":n8_8" function="internal">
        <lane id=":n8_8_0" index="0" speed="6.51" length="9.03" shape="401.60,592.80 401.95,595.25 403.00,597.00 404.75,598.05 407.20,598.40"/>
    </edge>
    <edge id=":n8_9" function="internal">
        <lane id=":n8_9_0" index="0" speed="11.39" length="14.40" shape="401.60,592.80 401.60,607.20"/>
    </edge>
    <edge id=":n8_10" function="internal">
        <lane id=":n8_10_0" index="0" speed="8.00" length="5.93" shape="401.60,592.80 401.05,596.65 400.00,598.40"/>
    </edge>
    <edge id=":n8_11" function="internal">
        <lane id=":n8_11_0" index="0" speed="3.65" length="2.34" shape="401.60,592.80 400.80,594.00 400.00,594.40"/>
    </edge>
    <edge id=":n8_18" function="internal">
        <lane id=":n8_18_0" index="0" speed="8.00" length="8.26" shape="400.00,598.40 399.40,599.40 396.65,601.05 392.80,601.60"/>
    </edge>
    <edge id=":n8_19" function="internal">
        <lane id=":n8_19_0" index="0" speed="3.65" length="2.34" shape="400.00,594.40 399.20,594.00 398.40,592.80"/>
    </edge>
    <edge id=":n8_12" function="internal">