<?xml version="1.0" encoding="UTF-8"?>

<!-- generated on Sat Dec 19 21:42:36 2020 by Eclipse SUMO netconvert Version 1.8.0
<configuration xmlns:xsi="http://www.w3.org/2001/XMLSchema-instance" xsi:noNamespaceSchemaLocation="http://sumo.dlr.de/xsd/netconvertConfiguration.xsd">

    <input>
        <node-files value="/Users/Matteo/PycharmProjects/TrafficEmu/sumo_grid_simulation/simulation_input_files/grid_plain_xml/nodes.nod.xml"/>
        <edge-files value="/Users/Matteo/PycharmProjects/TrafficEmu/sumo_grid_simulation/simulation_input_files/grid_plain_xml/edges.edg.xml"/>
        <type-files value="/Users/Matteo/PycharmProjects/TrafficEmu/sumo_grid_simulation/simulation_input_files/grid_plain_xml/edge_types.typ.xml"/>
    </input>

    <output>
        <output-file value="/Users/Matteo/PycharmProjects/TrafficEmu/sumo_grid_simulation/simulation_input_files/grid.net.xml"/>
    </output>

    <report>
        <aggregate-warnings value="5"/>
    </report>

</configuration>
-->

<net version="1.6" junctionCornerDetail="5" limitTurnSpeed="5.50" xmlns:xsi="http://www.w3.org/2001/XMLSchema-instance" xsi:noNamespaceSchemaLocation="http://sumo.dlr.de/xsd/net_file.xsd">

    <location netOffset="50.00,50.00" convBoundary="0.00,0.00,250.00,250.00" origBoundary="-50.00,-50.00,200.00,200.00" projParameter="!"/>

    <type id="normal_road" priority="0" numLanes="1" speed="13.90"/>
    <type id="normal_road_2lanes" priority="0" numLanes="2" speed="13.90"/>
    <type id="normal_road_3lanes" priority="0" numLanes="3" speed="13.90"/>
    <type id="normal_road_4lanes" priority="0" numLanes="4" speed="13.90"/>

    <edge id=":n1_0" function="internal">
        <lane id=":n1_0_0" index="0" speed="6.51" length="9.03" shape="42.00,63.60 41.65,61.15 40.60,59.40 38.85,58.35 36.40,58.00"/>
    </edge>
    <edge id=":n1_1" function="internal">
        <lane id=":n1_1_0" index="0" speed="69.00" length="27.20" shape="42.00,63.60 42.00,36.40"/>
        <lane id=":n1_1_1" index="1" speed="69.00" length="27.20" shape="45.20,63.60 45.20,36.40"/>
        <lane id=":n1_1_2" index="2" speed="69.00" length="27.20" shape="48.40,63.60 48.40,36.40"/>
    </edge>
    <edge id=":n1_4" function="internal">
        <lane id=":n1_4_0" index="0" speed="10.36" length="7.98" shape="48.40,63.60 49.35,56.95 50.00,55.87"/>
    </edge>
    <edge id=":n1_5" function="internal">
        <lane id=":n1_5_0" index="0" speed="3.65" length="2.34" shape="48.40,63.60 49.20,62.40 50.00,62.00"/>
    </edge>
    <edge id=":n1_24" function="internal">
        <lane id=":n1_24_0" index="0" speed="10.36" length="16.53" shape="50.00,55.87 52.20,52.20 56.95,49.35 63.60,48.40"/>
    </edge>
    <edge id=":n1_25" function="internal">
        <lane id=":n1_25_0" index="0" speed="3.65" length="2.34" shape="50.00,62.00 50.80,62.40 51.60,63.60"/>
    </edge>
    <edge id=":n1_6" function="internal">
        <lane id=":n1_6_0" index="0" speed="6.51" length="9.03" shape="63.60,58.00 61.15,58.35 59.40,59.40 58.35,61.15 58.00,63.60"/>
    </edge>
    <edge id=":n1_7" function="internal">
        <lane id=":n1_7_0" index="0" speed="69.00" length="27.20" shape="63.60,58.00 36.40,58.00"/>
        <lane id=":n1_7_1" index="1" speed="69.00" length="27.20" shape="63.60,54.80 36.40,54.80"/>
        <lane id=":n1_7_2" index="2" speed="69.00" length="27.20" shape="63.60,51.60 36.40,51.60"/>
    </edge>
    <edge id=":n1_10" function="internal">
        <lane id=":n1_10_0" index="0" speed="10.36" length="24.51" shape="63.60,51.60 56.95,50.65 52.20,47.80 49.35,43.05 48.40,36.40"/>
    </edge>
    <edge id=":n1_11" function="internal">
        <lane id=":n1_11_0" index="0" speed="3.65" length="4.67" shape="63.60,51.60 62.40,50.80 62.00,50.00 62.40,49.20 63.60,48.40"/>
    </edge>
    <edge id=":n1_12" function="internal">
        <lane id=":n1_12_0" index="0" speed="6.51" length="9.03" shape="58.00,36.40 58.35,38.85 59.40,40.60 61.15,41.65 63.60,42.00"/>
    </edge>
    <edge id=":n1_13" function="internal">
        <lane id=":n1_13_0" index="0" speed="69.00" length="27.20" shape="58.00,36.40 58.00,63.60"/>
        <lane id=":n1_13_1" index="1" speed="69.00" length="27.20" shape="54.80,36.40 54.80,63.60"/>
        <lane id=":n1_13_2" index="2" speed="69.00" length="27.20" shape="51.60,36.40 51.60,63.60"/>
    </edge>
    <edge id=":n1_16" function="internal">
        <lane id=":n1_16_0" index="0" speed="10.36" length="7.98" shape="51.60,36.40 50.65,43.05 50.00,44.13"/>
    </edge>
    <edge id=":n1_17" function="internal">
        <lane id=":n1_17_0" index="0" speed="3.65" length="2.34" shape="51.60,36.40 50.80,37.60 50.00,38.00"/>
    </edge>
    <edge id=":n1_26" function="internal">
        <lane id=":n1_26_0" index="0" speed="10.36" length="16.53" shape="50.00,44.13 47.80,47.80 43.05,50.65 36.40,51.60"/>
    </edge>
    <edge id=":n1_27" function="internal">
        <lane id=":n1_27_0" index="0" speed="3.65" length="2.34" shape="50.00,38.00 49.20,37.60 48.40,36.40"/>
    </edge>
    <edge id=":n1_18" function="internal">
        <lane id=":n1_18_0" index="0" speed="6.51" length="9.03" shape="36.40,42.00 38.85,41.65 40.60,40.60 41.65,38.85 42.00,36.40"/>
    </edge>
    <edge id=":n1_19" function="internal">
        <lane id=":n1_19_0" index="0" speed="69.00" length="27.20" shape="36.40,42.00 63.60,42.00"/>
        <lane id=":n1_19_1" index="1" speed="69.00" length="27.20" shape="36.40,45.20 63.60,45.20"/>
        <lane id=":n1_19_2" index="2" speed="69.00" length="27.20" shape="36.40,48.40 63.60,48.40"/>
    </edge>
    <edge id=":n1_22" function="internal">
        <lane id=":n1_22_0" index="0" speed="10.36" length="24.51" shape="36.40,48.40 43.05,49.35 47.80,52.20 50.65,56.95 51.60,63.60"/>
    </edge>
    <edge id=":n1_23" function="internal">
        <lane id=":n1_23_0" index="0" speed="3.65" length="4.67" shape="36.40,48.40 37.60,49.20 38.00,50.00 37.60,50.80 36.40,51.60"/>
    </edge>
    <edge id=":n10_0" function="internal">
        <lane id=":n10_0_0" index="0" speed="6.51" length="9.03" shape="192.00,63.60 191.65,61.15 190.60,59.40 188.85,58.35 186.40,58.00"/>
    </edge>
    <edge id=":n10_1" function="internal">
        <lane id=":n10_1_0" index="0" speed="69.00" length="27.20" shape="192.00,63.60 192.00,36.40"/>
        <lane id=":n10_1_1" index="1" speed="69.00" length="27.20" shape="195.20,63.60 195.20,36.40"/>
        <lane id=":n10_1_2" index="2" speed="69.00" length="27.20" shape="198.40,63.60 198.40,36.40"/>
    </edge>
    <edge id=":n10_4" function="internal">
        <lane id=":n10_4_0" index="0" speed="10.36" length="7.98" shape="198.40,63.60 199.35,56.95 200.00,55.87"/>
    </edge>
    <edge id=":n10_5" function="internal">
        <lane id=":n10_5_0" index="0" speed="3.65" length="2.34" shape="198.40,63.60 199.20,62.40 200.00,62.00"/>
    </edge>
    <edge id=":n10_24" function="internal">
        <lane id=":n10_24_0" index="0" speed="10.36" length="16.53" shape="200.00,55.87 202.20,52.20 206.95,49.35 213.60,48.40"/>
    </edge>
    <edge id=":n10_25" function="internal">
        <lane id=":n10_25_0" index="0" speed="3.65" length="2.34" shape="200.00,62.00 200.80,62.40 201.60,63.60"/>
    </edge>
    <edge id=":n10_6" function="internal">
        <lane id=":n10_6_0" index="0" speed="6.51" length="9.03" shape="213.60,58.00 211.15,58.35 209.40,59.40 208.35,61.15 208.00,63.60"/>
    </edge>
    <edge id=":n10_7" function="internal">
        <lane id=":n10_7_0" index="0" speed="69.00" length="27.20" shape="213.60,58.00 186.40,58.00"/>
        <lane id=":n10_7_1" index="1" speed="69.00" length="27.20" shape="213.60,54.80 186.40,54.80"/>
        <lane id=":n10_7_2" index="2" speed="69.00" length="27.20" shape="213.60,51.60 186.40,51.60"/>
    </edge>
    <edge id=":n10_10" function="internal">
        <lane id=":n10_10_0" index="0" speed="10.36" length="24.51" shape="213.60,51.60 206.95,50.65 202.20,47.80 199.35,43.05 198.40,36.40"/>
    </edge>
    <edge id=":n10_11" function="internal">
        <lane id=":n10_11_0" index="0" speed="3.65" length="4.67" shape="213.60,51.60 212.40,50.80 212.00,50.00 212.40,49.20 213.60,48.40"/>
    </edge>
    <edge id=":n10_12" function="internal">
        <lane id=":n10_12_0" index="0" speed="6.51" length="9.03" shape="208.00,36.40 208.35,38.85 209.40,40.60 211.15,41.65 213.60,42.00"/>
    </edge>
    <edge id=":n10_13" function="internal">
        <lane id=":n10_13_0" index="0" speed="69.00" length="27.20" shape="208.00,36.40 208.00,63.60"/>
        <lane id=":n10_13_1" index="1" speed="69.00" length="27.20" shape="204.80,36.40 204.80,63.60"/>
        <lane id=":n10_13_2" index="2" speed="69.00" length="27.20" shape="201.60,36.40 201.60,63.60"/>
    </edge>
    <edge id=":n10_16" function="internal">
        <lane id=":n10_16_0" index="0" speed="10.36" length="7.98" shape="201.60,36.40 200.65,43.05 200.00,44.13"/>
    </edge>
    <edge id=":n10_17" function="internal">
        <lane id=":n10_17_0" index="0" speed="3.65" length="2.34" shape="201.60,36.40 200.80,37.60 200.00,38.00"/>
    </edge>
    <edge id=":n10_26" function="internal">
        <lane id=":n10_26_0" index="0" speed="10.36" length="16.53" shape="200.00,44.13 197.80,47.80 193.05,50.65 186.40,51.60"/>
    </edge>
    <edge id=":n10_27" function="internal">
        <lane id=":n10_27_0" index="0" speed="3.65" length="2.34" shape="200.00,38.00 199.20,37.60 198.40,36.40"/>
    </edge>
    <edge id=":n10_18" function="internal">
        <lane id=":n10_18_0" index="0" speed="6.51" length="9.03" shape="186.40,42.00 188.85,41.65 190.60,40.60 191.65,38.85 192.00,36.40"/>
    </edge>
    <edge id=":n10_19" function="internal">
        <lane id=":n10_19_0" index="0" speed="69.00" length="27.20" shape="186.40,42.00 213.60,42.00"/>
        <lane id=":n10_19_1" index="1" speed="69.00" length="27.20" shape="186.40,45.20 213.60,45.20"/>
        <lane id=":n10_19_2" index="2" speed="69.00" length="27.20" shape="186.40,48.40 213.60,48.40"/>
    </edge>
    <edge id=":n10_22" function="internal">
        <lane id=":n10_22_0" index="0" speed="10.36" length="24.51" shape="186.40,48.40 193.05,49.35 197.80,52.20 200.65,56.95 201.60,63.60"/>
    </edge>
    <edge id=":n10_23" function="internal">
        <lane id=":n10_23_0" index="0" speed="3.65" length="4.67" shape="186.40,48.40 187.60,49.20 188.00,50.00 187.60,50.80 186.40,51.60"/>
    </edge>
    <edge id=":n11_0" function="internal">
        <lane id=":n11_0_0" index="0" speed="6.51" length="9.03" shape="192.00,113.60 191.65,111.15 190.60,109.40 188.85,108.35 186.40,108.00"/>
    </edge>
    <edge id=":n11_1" function="internal">
        <lane id=":n11_1_0" index="0" speed="69.00" length="27.20" shape="192.00,113.60 192.00,86.40"/>
        <lane id=":n11_1_1" index="1" speed="69.00" length="27.20" shape="195.20,113.60 195.20,86.40"/>
        <lane id=":n11_1_2" index="2" speed="69.00" length="27.20" shape="198.40,113.60 198.40,86.40"/>
    </edge>
    <edge id=":n11_4" function="internal">
        <lane id=":n11_4_0" index="0" speed="10.36" length="7.98" shape="198.40,113.60 199.35,106.95 200.00,105.87"/>
    </edge>
    <edge id=":n11_5" function="internal">
        <lane id=":n11_5_0" index="0" speed="3.65" length="2.34" shape="198.40,113.60 199.20,112.40 200.00,112.00"/>
    </edge>
    <edge id=":n11_24" function="internal">
        <lane id=":n11_24_0" index="0" speed="10.36" length="16.53" shape="200.00,105.87 202.20,102.20 206.95,99.35 213.60,98.40"/>
    </edge>
    <edge id=":n11_25" function="internal">
        <lane id=":n11_25_0" index="0" speed="3.65" length="2.34" shape="200.00,112.00 200.80,112.40 201.60,113.60"/>
    </edge>
    <edge id=":n11_6" function="internal">
        <lane id=":n11_6_0" index="0" speed="6.51" length="9.03" shape="213.60,108.00 211.15,108.35 209.40,109.40 208.35,111.15 208.00,113.60"/>
    </edge>
    <edge id=":n11_7" function="internal">
        <lane id=":n11_7_0" index="0" speed="69.00" length="27.20" shape="213.60,108.00 186.40,108.00"/>
        <lane id=":n11_7_1" index="1" speed="69.00" length="27.20" shape="213.60,104.80 186.40,104.80"/>
        <lane id=":n11_7_2" index="2" speed="69.00" length="27.20" shape="213.60,101.60 186.40,101.60"/>
    </edge>
    <edge id=":n11_10" function="internal">
        <lane id=":n11_10_0" index="0" speed="10.36" length="24.51" shape="213.60,101.60 206.95,100.65 202.20,97.80 199.35,93.05 198.40,86.40"/>
    </edge>
    <edge id=":n11_11" function="internal">
        <lane id=":n11_11_0" index="0" speed="3.65" length="4.67" shape="213.60,101.60 212.40,100.80 212.00,100.00 212.40,99.20 213.60,98.40"/>
    </edge>
    <edge id=":n11_12" function="internal">
        <lane id=":n11_12_0" index="0" speed="6.51" length="9.03" shape="208.00,86.40 208.35,88.85 209.40,90.60 211.15,91.65 213.60,92.00"/>
    </edge>
    <edge id=":n11_13" function="internal">
        <lane id=":n11_13_0" index="0" speed="69.00" length="27.20" shape="208.00,86.40 208.00,113.60"/>
        <lane id=":n11_13_1" index="1" speed="69.00" length="27.20" shape="204.80,86.40 204.80,113.60"/>
        <lane id=":n11_13_2" index="2" speed="69.00" length="27.20" shape="201.60,86.40 201.60,113.60"/>
    </edge>
    <edge id=":n11_16" function="internal">
        <lane id=":n11_16_0" index="0" speed="10.36" length="7.98" shape="201.60,86.40 200.65,93.05 200.00,94.13"/>
    </edge>
    <edge id=":n11_17" function="internal">
        <lane id=":n11_17_0" index="0" speed="3.65" length="2.34" shape="201.60,86.40 200.80,87.60 200.00,88.00"/>
    </edge>
    <edge id=":n11_26" function="internal">
        <lane id=":n11_26_0" index="0" speed="10.36" length="16.53" shape="200.00,94.13 197.80,97.80 193.05,100.65 186.40,101.60"/>
    </edge>
    <edge id=":n11_27" function="internal">
        <lane id=":n11_27_0" index="0" speed="3.65" length="2.34" shape="200.00,88.00 199.20,87.60 198.40,86.40"/>
    </edge>
    <edge id=":n11_18" function="internal">
        <lane id=":n11_18_0" index="0" speed="6.51" length="9.03" shape="186.40,92.00 188.85,91.65 190.60,90.60 191.65,88.85 192.00,86.40"/>
    </edge>
    <edge id=":n11_19" function="internal">
        <lane id=":n11_19_0" index="0" speed="69.00" length="27.20" shape="186.40,92.00 213.60,92.00"/>
        <lane id=":n11_19_1" index="1" speed="69.00" length="27.20" shape="186.40,95.20 213.60,95.20"/>
        <lane id=":n11_19_2" index="2" speed="69.00" length="27.20" shape="186.40,98.40 213.60,98.40"/>
    </edge>
    <edge id=":n11_22" function="internal">
        <lane id=":n11_22_0" index="0" speed="10.36" length="24.51" shape="186.40,98.40 193.05,99.35 197.80,102.20 200.65,106.95 201.60,113.60"/>
    </edge>
    <edge id=":n11_23" function="internal">
        <lane id=":n11_23_0" index="0" speed="3.65" length="4.67" shape="186.40,98.40 187.60,99.20 188.00,100.00 187.60,100.80 186.40,101.60"/>
    </edge>
    <edge id=":n12_0" function="internal">
        <lane id=":n12_0_0" index="0" speed="6.51" length="9.03" shape="192.00,163.60 191.65,161.15 190.60,159.40 188.85,158.35 186.40,158.00"/>
    </edge>
    <edge id=":n12_1" function="internal">
        <lane id=":n12_1_0" index="0" speed="69.00" length="27.20" shape="192.00,163.60 192.00,136.40"/>
        <lane id=":n12_1_1" index="1" speed="69.00" length="27.20" shape="195.20,163.60 195.20,136.40"/>
        <lane id=":n12_1_2" index="2" speed="69.00" length="27.20" shape="198.40,163.60 198.40,136.40"/>
    </edge>
    <edge id=":n12_4" function="internal">
        <lane id=":n12_4_0" index="0" speed="10.36" length="7.98" shape="198.40,163.60 199.35,156.95 200.00,155.87"/>
    </edge>
    <edge id=":n12_5" function="internal">
        <lane id=":n12_5_0" index="0" speed="3.65" length="2.34" shape="198.40,163.60 199.20,162.40 200.00,162.00"/>
    </edge>
    <edge id=":n12_24" function="internal">
        <lane id=":n12_24_0" index="0" speed="10.36" length="16.53" shape="200.00,155.87 202.20,152.20 206.95,149.35 213.60,148.40"/>
    </edge>
    <edge id=":n12_25" function="internal">
        <lane id=":n12_25_0" index="0" speed="3.65" length="2.34" shape="200.00,162.00 200.80,162.40 201.60,163.60"/>
    </edge>
    <edge id=":n12_6" function="internal">
        <lane id=":n12_6_0" index="0" speed="6.51" length="9.03" shape="213.60,158.00 211.15,158.35 209.40,159.40 208.35,161.15 208.00,163.60"/>
    </edge>
    <edge id=":n12_7" function="internal">
        <lane id=":n12_7_0" index="0" speed="69.00" length="27.20" shape="213.60,158.00 186.40,158.00"/>
        <lane id=":n12_7_1" index="1" speed="69.00" length="27.20" shape="213.60,154.80 186.40,154.80"/>
        <lane id=":n12_7_2" index="2" speed="69.00" length="27.20" shape="213.60,151.60 186.40,151.60"/>
    </edge>
    <edge id=":n12_10" function="internal">
        <lane id=":n12_10_0" index="0" speed="10.36" length="24.51" shape="213.60,151.60 206.95,150.65 202.20,147.80 199.35,143.05 198.40,136.40"/>
    </edge>
    <edge id=":n12_11" function="internal">
        <lane id=":n12_11_0" index="0" speed="3.65" length="4.67" shape="213.60,151.60 212.40,150.80 212.00,150.00 212.40,149.20 213.60,148.40"/>
    </edge>
    <edge id=":n12_12" function="internal">
        <lane id=":n12_12_0" index="0" speed="6.51" length="9.03" shape="208.00,136.40 208.35,138.85 209.40,140.60 211.15,141.65 213.60,142.00"/>
    </edge>
    <edge id=":n12_13" function="internal">
        <lane id=":n12_13_0" index="0" speed="69.00" length="27.20" shape="208.00,136.40 208.00,163.60"/>
        <lane id=":n12_13_1" index="1" speed="69.00" length="27.20" shape="204.80,136.40 204.80,163.60"/>
        <lane id=":n12_13_2" index="2" speed="69.00" length="27.20" shape="201.60,136.40 201.60,163.60"/>
    </edge>
    <edge id=":n12_16" function="internal">
        <lane id=":n12_16_0" index="0" speed="10.36" length="7.98" shape="201.60,136.40 200.65,143.05 200.00,144.13"/>
    </edge>
    <edge id=":n12_17" function="internal">
        <lane id=":n12_17_0" index="0" speed="3.65" length="2.34" shape="201.60,136.40 200.80,137.60 200.00,138.00"/>
    </edge>
    <edge id=":n12_26" function="internal">
        <lane id=":n12_26_0" index="0" speed="10.36" length="16.53" shape="200.00,144.13 197.80,147.80 193.05,150.65 186.40,151.60"/>
    </edge>
    <edge id=":n12_27" function="internal">
        <lane id=":n12_27_0" index="0" speed="3.65" length="2.34" shape="200.00,138.00 199.20,137.60 198.40,136.40"/>
    </edge>
    <edge id=":n12_18" function="internal">
        <lane id=":n12_18_0" index="0" speed="6.51" length="9.03" shape="186.40,142.00 188.85,141.65 190.60,140.60 191.65,138.85 192.00,136.40"/>
    </edge>
    <edge id=":n12_19" function="internal">
        <lane id=":n12_19_0" index="0" speed="69.00" length="27.20" shape="186.40,142.00 213.60,142.00"/>
        <lane id=":n12_19_1" index="1" speed="69.00" length="27.20" shape="186.40,145.20 213.60,145.20"/>
        <lane id=":n12_19_2" index="2" speed="69.00" length="27.20" shape="186.40,148.40 213.60,148.40"/>
    </edge>
    <edge id=":n12_22" function="internal">
        <lane id=":n12_22_0" index="0" speed="10.36" length="24.51" shape="186.40,148.40 193.05,149.35 197.80,152.20 200.65,156.95 201.60,163.60"/>
    </edge>
    <edge id=":n12_23" function="internal">
        <lane id=":n12_23_0" index="0" speed="3.65" length="4.67" shape="186.40,148.40 187.60,149.20 188.00,150.00 187.60,150.80 186.40,151.60"/>
    </edge>
    <edge id=":n13_0" function="internal">
        <lane id=":n13_0_0" index="0" speed="6.51" length="9.03" shape="192.00,213.60 191.65,211.15 190.60,209.40 188.85,208.35 186.40,208.00"/>
    </edge>
    <edge id=":n13_1" function="internal">
        <lane id=":n13_1_0" index="0" speed="69.00" length="27.20" shape="192.00,213.60 192.00,186.40"/>
        <lane id=":n13_1_1" index="1" speed="69.00" length="27.20" shape="195.20,213.60 195.20,186.40"/>
        <lane id=":n13_1_2" index="2" speed="69.00" length="27.20" shape="198.40,213.60 198.40,186.40"/>
    </edge>
    <edge id=":n13_4" function="internal">
        <lane id=":n13_4_0" index="0" speed="10.36" length="7.98" shape="198.40,213.60 199.35,206.95 200.00,205.87"/>
    </edge>
    <edge id=":n13_5" function="internal">
        <lane id=":n13_5_0" index="0" speed="3.65" length="2.34" shape="198.40,213.60 199.20,212.40 200.00,212.00"/>
    </edge>
    <edge id=":n13_24" function="internal">
        <lane id=":n13_24_0" index="0" speed="10.36" length="16.53" shape="200.00,205.87 202.20,202.20 206.95,199.35 213.60,198.40"/>
    </edge>
    <edge id=":n13_25" function="internal">
        <lane id=":n13_25_0" index="0" speed="3.65" length="2.34" shape="200.00,212.00 200.80,212.40 201.60,213.60"/>
    </edge>
    <edge id=":n13_6" function="internal">
        <lane id=":n13_6_0" index="0" speed="6.51" length="9.03" shape="213.60,208.00 211.15,208.35 209.40,209.40 208.35,211.15 208.00,213.60"/>
    </edge>
    <edge id=":n13_7" function="internal">
        <lane id=":n13_7_0" index="0" speed="69.00" length="27.20" shape="213.60,208.00 186.40,208.00"/>
        <lane id=":n13_7_1" index="1" speed="69.00" length="27.20" shape="213.60,204.80 186.40,204.80"/>
        <lane id=":n13_7_2" index="2" speed="69.00" length="27.20" shape="213.60,201.60 186.40,201.60"/>
    </edge>
    <edge id=":n13_10" function="internal">
        <lane id=":n13_10_0" index="0" speed="10.36" length="24.51" shape="213.60,201.60 206.95,200.65 202.20,197.80 199.35,193.05 198.40,186.40"/>
    </edge>
    <edge id=":n13_11" function="internal">
        <lane id=":n13_11_0" index="0" speed="3.65" length="4.67" shape="213.60,201.60 212.40,200.80 212.00,200.00 212.40,199.20 213.60,198.40"/>
    </edge>
    <edge id=":n13_12" function="internal">
        <lane id=":n13_12_0" index="0" speed="6.51" length="9.03" shape="208.00,186.40 208.35,188.85 209.40,190.60 211.15,191.65 213.60,192.00"/>
    </edge>
    <edge id=":n13_13" function="internal">
        <lane id=":n13_13_0" index="0" speed="69.00" length="27.20" shape="208.00,186.40 208.00,213.60"/>
        <lane id=":n13_13_1" index="1" speed="69.00" length="27.20" shape="204.80,186.40 204.80,213.60"/>
        <lane id=":n13_13_2" index="2" speed="69.00" length="27.20" shape="201.60,186.40 201.60,213.60"/>
    </edge>
    <edge id=":n13_16" function="internal">
        <lane id=":n13_16_0" index="0" speed="10.36" length="7.98" shape="201.60,186.40 200.65,193.05 200.00,194.13"/>
    </edge>
    <edge id=":n13_17" function="internal">
        <lane id=":n13_17_0" index="0" speed="3.65" length="2.34" shape="201.60,186.40 200.80,187.60 200.00,188.00"/>
    </edge>
    <edge id=":n13_26" function="internal">
        <lane id=":n13_26_0" index="0" speed="10.36" length="16.53" shape="200.00,194.13 197.80,197.80 193.05,200.65 186.40,201.60"/>
    </edge>
    <edge id=":n13_27" function="internal">
        <lane id=":n13_27_0" index="0" speed="3.65" length="2.34" shape="200.00,188.00 199.20,187.60 198.40,186.40"/>
    </edge>
    <edge id=":n13_18" function="internal">
        <lane id=":n13_18_0" index="0" speed="6.51" length="9.03" shape="186.40,192.00 188.85,191.65 190.60,190.60 191.65,188.85 192.00,186.40"/>
    </edge>
    <edge id=":n13_19" function="internal">
        <lane id=":n13_19_0" index="0" speed="69.00" length="27.20" shape="186.40,192.00 213.60,192.00"/>
        <lane id=":n13_19_1" index="1" speed="69.00" length="27.20" shape="186.40,195.20 213.60,195.20"/>
        <lane id=":n13_19_2" index="2" speed="69.00" length="27.20" shape="186.40,198.40 213.60,198.40"/>
    </edge>
    <edge id=":n13_22" function="internal">
        <lane id=":n13_22_0" index="0" speed="10.36" length="24.51" shape="186.40,198.40 193.05,199.35 197.80,202.20 200.65,206.95 201.60,213.60"/>
    </edge>
    <edge id=":n13_23" function="internal">
        <lane id=":n13_23_0" index="0" speed="3.65" length="4.67" shape="186.40,198.40 187.60,199.20 188.00,200.00 187.60,200.80 186.40,201.60"/>
    </edge>
    <edge id=":n14_0" function="internal">
        <lane id=":n14_0_0" index="0" speed="6.51" length="9.03" shape="142.00,213.60 141.65,211.15 140.60,209.40 138.85,208.35 136.40,208.00"/>
    </edge>
    <edge id=":n14_1" function="internal">
        <lane id=":n14_1_0" index="0" speed="69.00" length="27.20" shape="142.00,213.60 142.00,186.40"/>
        <lane id=":n14_1_1" index="1" speed="69.00" length="27.20" shape="145.20,213.60 145.20,186.40"/>
        <lane id=":n14_1_2" index="2" speed="69.00" length="27.20" shape="148.40,213.60 148.40,186.40"/>
    </edge>
    <edge id=":n14_4" function="internal">
        <lane id=":n14_4_0" index="0" speed="10.36" length="7.98" shape="148.40,213.60 149.35,206.95 150.00,205.87"/>
    </edge>
    <edge id=":n14_5" function="internal">
        <lane id=":n14_5_0" index="0" speed="3.65" length="2.34" shape="148.40,213.60 149.20,212.40 150.00,212.00"/>
    </edge>
    <edge id=":n14_24" function="internal">
        <lane id=":n14_24_0" index="0" speed="10.36" length="16.53" shape="150.00,205.87 152.20,202.20 156.95,199.35 163.60,198.40"/>
    </edge>
    <edge id=":n14_25" function="internal">
        <lane id=":n14_25_0" index="0" speed="3.65" length="2.34" shape="150.00,212.00 150.80,212.40 151.60,213.60"/>
    </edge>
    <edge id=":n14_6" function="internal">
        <lane id=":n14_6_0" index="0" speed="6.51" length="9.03" shape="163.60,208.00 161.15,208.35 159.40,209.40 158.35,211.15 158.00,213.60"/>
    </edge>
    <edge id=":n14_7" function="internal">
        <lane id=":n14_7_0" index="0" speed="69.00" length="27.20" shape="163.60,208.00 136.40,208.00"/>
        <lane id=":n14_7_1" index="1" speed="69.00" length="27.20" shape="163.60,204.80 136.40,204.80"/>
        <lane id=":n14_7_2" index="2" speed="69.00" length="27.20" shape="163.60,201.60 136.40,201.60"/>
    </edge>
    <edge id=":n14_10" function="internal">
        <lane id=":n14_10_0" index="0" speed="10.36" length="24.51" shape="163.60,201.60 156.95,200.65 152.20,197.80 149.35,193.05 148.40,186.40"/>
    </edge>
    <edge id=":n14_11" function="internal">
        <lane id=":n14_11_0" index="0" speed="3.65" length="4.67" shape="163.60,201.60 162.40,200.80 162.00,200.00 162.40,199.20 163.60,198.40"/>
    </edge>
    <edge id=":n14_12" function="internal">
        <lane id=":n14_12_0" index="0" speed="6.51" length="9.03" shape="158.00,186.40 158.35,188.85 159.40,190.60 161.15,191.65 163.60,192.00"/>
    </edge>
    <edge id=":n14_13" function="internal">
        <lane id=":n14_13_0" index="0" speed="69.00" length="27.20" shape="158.00,186.40 158.00,213.60"/>
        <lane id=":n14_13_1" index="1" speed="69.00" length="27.20" shape="154.80,186.40 154.80,213.60"/>
        <lane id=":n14_13_2" index="2" speed="69.00" length="27.20" shape="151.60,186.40 151.60,213.60"/>
    </edge>
    <edge id=":n14_16" function="internal">
        <lane id=":n14_16_0" index="0" speed="10.36" length="7.98" shape="151.60,186.40 150.65,193.05 150.00,194.13"/>
    </edge>
    <edge id=":n14_17" function="internal">
        <lane id=":n14_17_0" index="0" speed="3.65" length="2.34" shape="151.60,186.40 150.80,187.60 150.00,188.00"/>
    </edge>
    <edge id=":n14_26" function="internal">
        <lane id=":n14_26_0" index="0" speed="10.36" length="16.53" shape="150.00,194.13 147.80,197.80 143.05,200.65 136.40,201.60"/>
    </edge>
    <edge id=":n14_27" function="internal">
        <lane id=":n14_27_0" index="0" speed="3.65" length="2.34" shape="150.00,188.00 149.20,187.60 148.40,186.40"/>
    </edge>
    <edge id=":n14_18" function="internal">
        <lane id=":n14_18_0" index="0" speed="6.51" length="9.03" shape="136.40,192.00 138.85,191.65 140.60,190.60 141.65,188.85 142.00,186.40"/>
    </edge>
    <edge id=":n14_19" function="internal">
        <lane id=":n14_19_0" index="0" speed="69.00" length="27.20" shape="136.40,192.00 163.60,192.00"/>
        <lane id=":n14_19_1" index="1" speed="69.00" length="27.20" shape="136.40,195.20 163.60,195.20"/>
        <lane id=":n14_19_2" index="2" speed="69.00" length="27.20" shape="136.40,198.40 163.60,198.40"/>
    </edge>
    <edge id=":n14_22" function="internal">
        <lane id=":n14_22_0" index="0" speed="10.36" length="24.51" shape="136.40,198.40 143.05,199.35 147.80,202.20 150.65,206.95 151.60,213.60"/>
    </edge>
    <edge id=":n14_23" function="internal">
        <lane id=":n14_23_0" index="0" speed="3.65" length="4.67" shape="136.40,198.40 137.60,199.20 138.00,200.00 137.60,200.80 136.40,201.60"/>
    </edge>
    <edge id=":n15_0" function="internal">
        <lane id=":n15_0_0" index="0" speed="6.51" length="9.03" shape="92.00,213.60 91.65,211.15 90.60,209.40 88.85,208.35 86.40,208.00"/>
    </edge>
    <edge id=":n15_1" function="internal">
        <lane id=":n15_1_0" index="0" speed="69.00" length="27.20" shape="92.00,213.60 92.00,186.40"/>
        <lane id=":n15_1_1" index="1" speed="69.00" length="27.20" shape="95.20,213.60 95.20,186.40"/>
        <lane id=":n15_1_2" index="2" speed="69.00" length="27.20" shape="98.40,213.60 98.40,186.40"/>
    </edge>
    <edge id=":n15_4" function="internal">
        <lane id=":n15_4_0" index="0" speed="10.36" length="7.98" shape="98.40,213.60 99.35,206.95 100.00,205.87"/>
    </edge>
    <edge id=":n15_5" function="internal">
        <lane id=":n15_5_0" index="0" speed="3.65" length="2.34" shape="98.40,213.60 99.20,212.40 100.00,212.00"/>
    </edge>
    <edge id=":n15_24" function="internal">
        <lane id=":n15_24_0" index="0" speed="10.36" length="16.53" shape="100.00,205.87 102.20,202.20 106.95,199.35 113.60,198.40"/>
    </edge>
    <edge id=":n15_25" function="internal">
        <lane id=":n15_25_0" index="0" speed="3.65" length="2.34" shape="100.00,212.00 100.80,212.40 101.60,213.60"/>
    </edge>
    <edge id=":n15_6" function="internal">
        <lane id=":n15_6_0" index="0" speed="6.51" length="9.03" shape="113.60,208.00 111.15,208.35 109.40,209.40 108.35,211.15 108.00,213.60"/>
    </edge>
    <edge id=":n15_7" function="internal">