<?xml version="1.0" ?>
<additional>
	<vType id="veh_passenger" vClass="passenger" emissionClass="HBEFA3/PC_G_EU4" accel="6.0" decel="4.5" maxSpeed="25.0" speedFactor="1.0" speedDev="0.1"/>
</additional>
