<?xml version="1.0" encoding="UTF-8"?>

<!-- generated on Tue Dec 29 12:18:48 2020 by Eclipse SUMO duarouter Version 1.8.0
<configuration xmlns:xsi="http://www.w3.org/2001/XMLSchema-instance" xsi:noNamespaceSchemaLocation="http://sumo.dlr.de/xsd/duarouterConfiguration.xsd">

    <input>
        <net-file value="/home/nicholas/Documents/TrafficEmu/sumo_grid_simulation/simulation_input_files/grid.net.xml"/>
        <additional-files value="/home/nicholas/Documents/TrafficEmu/sumo_grid_simulation/simulation_input_files/veh.add.xml"/>
        <route-files value="/home/nicholas/Documents/TrafficEmu/sumo_grid_simulation/simulation_input_files/veh_passenger.trips.xml"/>
    </input>

    <output>
        <output-file value="/home/nicholas/Documents/TrafficEmu/sumo_grid_simulation/simulation_input_files/veh_passenger.trips.xml.tmp"/>
        <write-trips value="true"/>
    </output>

    <time>
        <begin value="0.0"/>
        <end value="3600.0"/>
    </time>

    <report>
        <no-warnings value="true"/>
        <ignore-errors value="true"/>
        <no-step-log value="true"/>
    </report>

</configuration>
-->

<routes xmlns:xsi="http://www.w3.org/2001/XMLSchema-instance" xsi:noNamespaceSchemaLocation="http://sumo.dlr.de/xsd/routes_file.xsd">
    <vType id="veh_passenger" maxSpeed="55.55" speedFactor="normc(1.00,0.10,0.20,2.00)" vClass="passenger" emissionClass="HBEFA3/PC_G_EU4" accel="2.6" decel="4.5"/>
    <trip id="0" type="veh_passenger" depart="1.00" from="n34ton33" to="n1too24"/>
    <trip id="1" type="veh_passenger" depart="5.00" from="o11ton30" to="n10too4"/>
    <trip id="2" type="veh_passenger" depart="8.00" from="n28ton19" to="n33too15"/>
    <trip id="3" type="veh_passenger" depart="13.00" from="o2ton2" to="n34too16"/>
    <trip id="4" type="veh_passenger" depart="18.00" from="n19ton18" to="n5too3"/>
    <trip id="5" type="veh_passenger" depart="31.00" from="n2too2" to="n25ton36"/>
    <trip id="6" type="veh_passenger" depart="32.00" from="n30ton29" to="n16too21"/>
    <trip id="7" type="veh_passenger" depart="53.00" from="n4ton3" to="n23ton22"/>
    <trip id="8" type="veh_passenger" depart="72.00" from="n14ton23" to="n16too21"/>
    <trip id="9" type="veh_passenger" depart="76.00" from="o10ton29" to="o8ton27"/>
    <trip id="10" type="veh_passenger" depart="80.00" from="o22ton9" to="n34too16"/>
    <trip id="11" type="veh_passenger" depart="102.00" from="n5ton10" to="n10too4"/>
    <trip id="12" type="veh_passenger" depart="107.00" from="o5ton17" to="o13ton31"/>
    <trip id="13" type="veh_passenger" depart="108.00" from="o14ton32" to="n14ton15"/>
    <trip id="14" type="veh_passenger" depart="132.00" from="o19ton36" to="n1too24"/>
    <trip id="15" type="veh_passenger" depart="135.00" from="n30too11" to="n33too15"/>
    <trip id="16" type="veh_passenger" depart="144.00" from="o12ton31" to="n28too9"/>
    <trip id="17" type="veh_passenger" depart="149.00" from="o11ton30" to="n26too6"/>
    <trip id="18" type="veh_passenger" depart="161.00" from="o9ton28" to="n4too23"/>
    <trip id="19" type="veh_passenger" depart="169.00" from="o10ton29" to="o4ton10"/>
    <trip id="20" type="veh_passenger" depart="184.00" from="o18ton36" to="n2too2"/>
    <trip id="21" type="veh_passenger" depart="188.00" from="n26too7" to="n31too13"/>
    <trip id="22" type="veh_passenger" depart="208.00" from="o13ton31" to="o9ton28"/>
    <trip id="23" type="veh_passenger" depart="210.00" from="n29ton28" to="n23ton14"/>
    <trip id="24" type="veh_passenger" depart="221.00" from="o2ton2" to="n25too20"/>
    <trip id="25" type="veh_passenger" depart="237.00" from="o11ton30" to="n24ton23"/>
    <trip id="26" type="veh_passenger" depart="238.00" from="o24ton1" to="n33ton22"/>
    <trip id="27" type="veh_passenger" depart="243.00" from="n17ton10" to="n7ton12"/>
    <trip id="28" type="veh_passenger" depart="268.00" from="o22ton9" to="n26too6"/>
    <trip id="29" type="veh_passenger" depart="284.00" from="n27ton28" to="n26too6"/>
    <trip id="30" type="veh_passenger" depart="308.00" from="o7ton26" to="n30too11"/>
    <trip id="31" type="veh_passenger" depart="313.00" from="o20ton25" to="n26too6"/>
    <trip id="32" type="veh_passenger" depart="330.00" from="n35ton36" to="n28too9"/>
    <trip id="33" type="veh_passenger" depart="340.00" from="o15ton33" to="n32too14"/>
    <trip id="34" type="veh_passenger" depart="347.00" from="n31too12" to="n29too10"/>
    <trip id="35" type="veh_passenger" depart="349.00" from="o11ton30" to="n32too14"/>
    <trip id="36" type="veh_passenger" depart="355.00" from="o23ton4" to="n36too19"/>
    <trip id="37" type="veh_passenger" depart="361.00" from="n31too13" to="n5too3"/>
    <trip id="38" type="veh_passenger" depart="384.00" from="n35ton34" to="n23ton34"/>
    <trip id="39" type="veh_passenger" depart="391.00" from="o11ton30" to="n30too11"/>
    <trip id="40" type="veh_passenger" depart="401.00" from="n7ton8" to="n36too18"/>
    <trip id="41" type="veh_passenger" depart="411.00" from="n6ton3" to="n34too16"/>
    <trip id="42" type="veh_passenger" depart="417.00" from="o10ton29" to="n31too12"/>
    <trip id="43" type="veh_passenger" depart="418.00" from="o1ton1" to="n17too5"/>
    <trip id="44" type="veh_passenger" depart="420.00" from="o10ton29" to="n1too24"/>
    <trip id="45" type="veh_passenger" depart="427.00" from="n11ton6" to="n30too11"/>
    <trip id="46" type="veh_passenger" depart="436.00" from="n23ton24" to="n17ton26"/>
    <trip id="47" type="veh_passenger" depart="449.00" from="n3ton8" to="n34too16"/>
    <trip id="48" type="veh_passenger" depart="453.00" from="o21ton16" to="n32too14"/>
    <trip id="49" type="veh_passenger" depart="485.00" from="o5ton17" to="n21ton20"/>
    <trip id="50" type="veh_passenger" depart="489.00" from="o4ton10" to="n1too1"/>
    <trip id="51" type="veh_passenger" depart="496.00" from="o8ton27" to="n15ton8"/>
    <trip id="52" type="veh_passenger" depart="504.00" from="n2ton3" to="n34too16"/>
    <trip id="53" type="veh_passenger" depart="531.00" from="o16ton34" to="n24ton15"/>
    <trip id="54" type="veh_passenger" depart="543.00" from="o7ton26" to="n2ton1"/>
    <trip id="55" type="veh_passenger" depart="546.00" from="o19ton36" to="n12ton7"/>
    <trip id="56" type="veh_passenger" depart="571.00" from="n10ton17" to="n29ton30"/>
    <trip id="57" type="veh_passenger" depart="589.00" from="n24ton35" to="n25too20"/>
    <trip id="58" type="veh_passenger" depart="599.00" from="n13ton22" to="n28too9"/>
    <trip id="59" type="veh_passenger" depart="602.00" from="o8ton27" to="n4too23"/>
    <trip id="60" type="veh_passenger" depart="608.00" from="o23ton4" to="n29too10"/>
    <trip id="61" type="veh_passenger" depart="615.00" from="n7ton14" to="n26too6"/>
    <trip id="62" type="veh_passenger" depart="651.00" from="o9ton28" to="n9too22"/>
    <trip id="63" type="veh_passenger" depart="691.00" from="o23ton4" to="n35ton24"/>
    <trip id="64" type="veh_passenger" depart="698.00" from="o14ton32" to="n31too13"/>
    <trip id="65" type="veh_passenger" depart="721.00" from="n16ton9" to="n32too14"/>
    <trip id="66" type="veh_passenger" depart="726.00" from="o19ton36" to="n6ton11"/>
    <trip id="67" type="veh_passenger" depart="730.00" from="o2ton2" to="n25too20"/>
    <trip id="68" type="veh_passenger" depart="737.00" from="o5ton17" to="n32too14"/>
    <trip id="69" type="veh_passenger" depart="744.00" from="o2ton2" to="n8ton9"/>
    <trip id="70" type="veh_passenger" depart="768.00" from="o18ton36" to="n2too2"/>
    <trip id="71" type="veh_passenger" depart="787.00" from="n36ton35" to="n36too18"/>
    <trip id="72" type="veh_passenger" depart="812.00" from="o16ton34" to="n29too10"/>
    <trip id="73" type="veh_passenger" depart="820.00" from="o5ton17" to="n31too12"/>
    <trip id="74" type="veh_passenger" depart="823.00" from="o3ton5" to="n9ton8"/>
    <trip id="75" type="veh_passenger" depart="830.00" from="o5ton17" to="n17too5"/>
    <trip id="76" type="veh_passenger" depart="839.00" from="o14ton32" to="n27too8"/>
    <trip id="77" type="veh_passenger" depart="841.00" from="n9ton8" to="n29ton20"/>
    <trip id="78" type="veh_passenger" depart="844.00" from="o20ton25" to="n31ton30"/>
    <trip id="79" type="veh_passenger" depart="855.00" from="o24ton1" to="n21ton20"/>
    <trip id="80" type="veh_passenger" depart="858.00" from="o23ton4" to="n1too24"/>
    <trip id="81" type="veh_passenger" depart="864.00" from="o4ton10" to="n17too5"/>
    <trip id="82" type="veh_passenger" depart="869.00" from="n11ton12" to="n36too19"/>
    <trip id="83" type="veh_passenger" depart="873.00" from="o23ton4" to="n30too11"/>
    <trip id="84" type="veh_passenger" depart="881.00" from="o24ton1" to="n5too3"/>
    <trip id="85" type="veh_passenger" depart="885.00" from="o13ton31" to="n27too8"/>
    <trip id="86" type="veh_passenger" depart="889.00" from="n17too5" to="n32ton33"/>
    <trip id="87" type="veh_passenger" depart="890.00" from="n34ton33" to="n32too14"/>
    <trip id="88" type="veh_passenger" depart="897.00" from="o21ton16" to="n5too3"/>
    <trip id="89" type="veh_passenger" depart="907.00" from="o11ton30" to="n33too15"/>
    <trip id="90" type="veh_passenger" depart="911.00" from="o3ton5" to="n16ton9"/>
    <trip id="91" type="veh_passenger" depart="912.00" from="o22ton9" to="n4ton9"/>
    <trip id="92" type="veh_passenger" depart="941.00" from="o7ton26" to="n4too23"/>
    <trip id="93" type="veh_passenger" depart="947.00" from="o5ton17" to="n31too12"/>
    <trip id="94" type="veh_passenger" depart="951.00" from="o23ton4" to="n1too24"/>
    <trip id="95" type="veh_passenger" depart="958.00" from="n15ton14" to="n18ton17"/>
    <trip id="96" type="veh_passenger" depart="973.00" from="o10ton29" to="n31too13"/>
    <trip id="97" type="veh_passenger" depart="974.00" from="n36too19" to="n1too24"/>
    <trip id="98" type="veh_passenger" depart="978.00" from="o23ton4" to="n1ton2"/>
    <trip id="99" type="veh_passenger" depart="984.00" from="o4ton10" to="n11ton6"/>
    <trip id="100" type="veh_passenger" depart="985.00" from="o6ton26" to="n5too3"/>
    <trip id="101" type="veh_passenger" depart="991.00" from="n5ton10" to="n3ton6"/>
    <trip id="102" type="veh_passenger" depart="995.00" from="o4ton10" to="n21ton20"/>
    <trip id="103" type="veh_passenger" depart="1030.00" from="o12ton31" to="n25too20"/>
    <trip id="104" type="veh_passenger" depart="1032.00" from="o15ton33" to="n25too20"/>
    <trip id="105" type="veh_passenger" depart="1034.00" from="o3ton5" to="n15ton14"/>
    <trip id="106" type="veh_passenger" depart="1049.00" from="n19ton28" to="n8ton7"/>
    <trip id="107" type="veh_passenger" depart="1066.00" from="n19ton12" to="n34too16"/>
    <trip id="108" type="veh_passenger" depart="1100.00" from="o4ton10" to="n16too21"/>
    <trip id="109" type="veh_passenger" depart="1104.00" from="n6ton3" to="n36too18"/>
    <trip id="110" type="veh_passenger" depart="1153.00" from="n15ton14" to="n2too2"/>
    <trip id="111" type="veh_passenger" depart="1157.00" from="o7ton26" to="n5ton10"/>
    <trip id="112" type="veh_passenger" depart="1167.00" from="n17ton26" to="n22ton21"/>
    <trip id="113" type="veh_passenger" depart="1175.00" from="o11ton30" to="n36too19"/>
    <trip id="114" type="veh_passenger" depart="1180.00" from="o15ton33" to="n20ton29"/>
    <trip id="115" type="veh_passenger" depart="1187.00" from="o9ton28" to="n14ton13"/>
    <trip id="116" type="veh_passenger" depart="1197.00" from="o24ton1" to="n26too6"/>
    <trip id="117" type="veh_passenger" depart="1203.00" from="o16ton34" to="n4too23"/>
    <trip id="118" type="veh_passenger" depart="1210.00" from="o24ton1" to="n29too10"/>
    <trip id="119" type="veh_passenger" depart="1212.00" from="n28ton19" to="n11ton6"/>
    <trip id="120" type="veh_passenger" depart="1237.00" from="o18ton36" to="n4too23"/>
    <trip id="121" type="veh_passenger" depart="1240.00" from="o1ton1" to="n25too20"/>
    <trip id="122" type="veh_passenger" depart="1245.00" from="o5ton17" to="n26too7"/>
    <trip id="123" type="veh_passenger" depart="1250.00" from="o1ton1" to="n26too7"/>
    <trip id="124" type="veh_passenger" depart="1257.00" from="n16ton25" to="n36too19"/>
    <trip id="125" type="veh_passenger" depart="1288.00" from="o20ton25" to="n5ton6"/>
    <trip id="126" type="veh_passenger" depart="1291.00" from="o16ton34" to="n7ton8"/>
    <trip id="127" type="veh_passenger" depart="1302.00" from="o16ton34" to="n26too7"/>
    <trip id="128" type="veh_passenger" depart="1306.00" from="n3ton6" to="o9ton28"/>
    <trip id="129" type="veh_passenger" depart="1311.00" from="o8ton27" to="n33ton34"/>
    <trip id="130" type="veh_passenger" depart="1322.00" from="n20ton29" to="n17too5"/>
    <trip id="131" type="veh_passenger" depart="1346.00" from="n14ton15" to="n33ton34"/>
    <trip id="132" type="veh_passenger" depart="1360.00" from="n15ton8" to="n28too9"/>
    <trip id="133" type="veh_passenger" depart="1376.00" from="n35too17" to="n27too8"/>
    <trip id="134" type="veh_passenger" depart="1389.00" from="o7ton26" to="n2too2"/>
    <trip id="135" type="veh_passenger" depart="1393.00" from="o14ton32" to="n6ton7"/>
    <trip id="136" type="veh_passenger" depart="1407.00" from="o14ton32" to="n36too18"/>
    <trip id="137" type="veh_passenger" depart="1421.00" from="n22ton13" to="n26too6"/>
    <trip id="138" type="veh_passenger" depart="1445.00" from="o13ton31" to="o20ton25"/>
    <trip id="139" type="veh_passenger" depart="1457.00" from="o8ton27" to="n16too21"/>
    <trip id="140" type="veh_passenger" depart="1458.00" from="n4ton1" to="n17too5"/>
    <trip id="141" type="veh_passenger" depart="1465.00" from="n22ton21" to="n1too24"/>
    <trip id="142" type="veh_passenger" depart="1518.00" from="o11ton30" to="n35too17"/>
    <trip id="143" type="veh_passenger" depart="1521.00" from="o16ton34" to="n9too22"/>
    <trip id="144" type="veh_passenger" depart="1531.00" from="o17ton35" to="n30too11"/>
    <trip id="145" type="veh_passenger" depart="1546.00" from="o17ton35" to="n16too21"/>
    <trip id="146" type="veh_passenger" depart="1570.00" from="o20ton25" to="n1too1"/>
    <trip id="147" type="veh_passenger" depart="1580.00" from="o1ton1" to="n34too16"/>
    <trip id="148" type="veh_passenger" depart="1581.00" from="n20ton19" to="n25too20"/>
    <trip id="149" type="veh_passenger" depart="1605.00" from="o12ton31" to="n35ton24"/>
    <trip id="150" type="veh_passenger" depart="1606.00" from="o17ton35" to="n13ton20"/>
    <trip id="151" type="veh_passenger" depart="1616.00" from="o15ton33" to="n4ton3"/>
    <trip id="152" type="veh_passenger" depart="1620.00" from="o13ton31" to="n4ton1"/>
    <trip id="153" type="veh_passenger" depart="1626.00" from="n7ton12" to="n13ton22"/>
    <trip id="154" type="veh_passenger" depart="1629.00" from="o7ton26" to="n10too4"/>
    <trip id="155" type="veh_passenger" depart="1651.00" from="n12ton11" to="n25too20"/>
    <trip id="156" type="veh_passenger" depart="1666.00" from="n28too9" to="n16too21"/>
    <trip id="157" type="veh_passenger" depart="1667.00" from="o18ton36" to="n35ton24"/>
    <trip id="158" type="veh_passenger" depart="1668.00" from="o23ton4" to="n27too8"/>
    <trip id="159" type="veh_passenger" depart="1672.00" from="o14ton32" to="n25ton36"/>
    <trip id="160" type="veh_passenger" depart="1684.00" from="o8ton27" to="n6ton5"/>
    <trip id="161" type="veh_passenger" depart="1713.00" from="o22ton9" to="n1too1"/>
    <trip id="162" type="veh_passenger" depart="1726.00" from="o7ton26" to="o19ton36"/>
    <trip id="163" type="veh_passenger" depart="1742.00" from="o9ton28" to="n29too10"/>
    <trip id="164" type="veh_passenger" depart="1774.00" from="n13ton12" to="n5too3"/>
    <trip id="165" type="veh_passenger" depart="1782.00" from="o15ton33" to="n26too7"/>
    <trip id="166" type="veh_passenger" depart="1788.00" from="o16ton34" to="n10too4"/>
    <trip id="167" type="veh_passenger" depart="1792.00" from="o2ton2" to="n34ton33"/>
    <trip id="168" type="veh_passenger" depart="1796.00" from="n23ton22" to="n1too1"/>
    <trip id="169" type="veh_passenger" depart="1811.00" from="o10ton29" to="n31too12"/>
    <trip id="170" type="veh_passenger" depart="1812.00" from="n10too4" to="n19ton20"/>
    <trip id="171" type="veh_passenger" depart="1818.00" from="o15ton33" to="n11ton6"/>
    <trip id="172" type="veh_passenger" depart="1823.00" from="n17ton10" to="n9too22"/>
    <trip id="173" type="veh_passenger" depart="1826.00" from="o7ton26" to="n25too20"/>
    <trip id="174" type="veh_passenger" depart="1832.00" from="n24ton25" to="n20ton29"/>
    <trip id="175" type="veh_passenger" depart="1843.00" from="o12ton31" to="n5ton10"/>
    <trip id="176" type="veh_passenger" depart="1849.00" from="n34ton23" to="o7ton26"/>
    <trip id="177" type="veh_passenger" depart="1856.00" from="o19ton36" to="n3ton4"/>
    <trip id="178" type="veh_passenger" depart="1858.00" from="n23ton34" to="n35too17"/>
    <trip id="179" type="veh_passenger" depart="1863.00" from="n3ton6" to="n26too7"/>
    <trip id="180" type="veh_passenger" depart="1870.00" from="n7ton8" to="n16ton9"/>
    <trip id="181" type="veh_passenger" depart="1876.00" from="o6ton26" to="n9ton16"/>
    <trip id="182" type="veh_passenger" depart="1884.00" from="o12ton31" to="n28too9"/>
    <trip id="183" type="veh_passenger" depart="1886.00" from="n32ton21" to="n21ton22"/>
    <trip id="184" type="veh_passenger" depart="1937.00" from="o9ton28" to="n2ton3"/>
    <trip id="185" type="veh_passenger" depart="1948.00" from="o24ton1" to="n33too15"/>
    <trip id="186" type="veh_passenger" depart="1951.00" from="o9ton28" to="n34too16"/>
    <trip id="187" type="veh_passenger" depart="1956.00" from="n32too14" to="n30ton21"/>
    <trip id="188" type="veh_passenger" depart="1966.00" from="n1ton2" to="n28ton29"/>
    <trip id="189" type="veh_passenger" depart="1997.00" from="o19ton36" to="n1too1"/>
    <trip id="190" type="veh_passenger" depart="2004.00" from="n19ton28" to="n5too3"/>
    <trip id="191" type="veh_passenger" depart="2022.00" from="n21ton32" to="n16too21"/>
    <trip id="192" type="veh_passenger" depart="2040.00" from="n8ton3" to="n10too4"/>
    <trip id="193" type="veh_passenger" depart="2050.00" from="n12ton7" to="n36too18"/>
    <trip id="194" type="veh_passenger" depart="2065.00" from="o22ton9" to="n31ton30"/>
    <trip id="195" type="veh_passenger" depart="2088.00" from="n7ton6" to="n24ton25"/>
    <trip id="196" type="veh_passenger" depart="2097.00" from="o8ton27" to="n36too19"/>
    <trip id="197" type="veh_passenger" depart="2115.00" from="o15ton33" to="n24ton23"/>
    <trip id="198" type="veh_passenger" depart="2120.00" from="o24ton1" to="n35too17"/>
    <trip id="199" type="veh_passenger" depart="2125.00" from="o16ton34" to="n1too24"/>
    <trip id="200" type="veh_passenger" depart="2136.00" from="n19ton20" to="n36too19"/>
    <trip id="201" type="veh_passenger" depart="2141.00" from="o8ton27" to="n1too1"/>
    <trip id="202" type="veh_passenger" depart="2159.00" from="o13ton31" to="n17too5"/>
    <trip id="203" type="veh_passenger" depart="2162.00" from="o21ton16" to="n4too23"/>
    <trip id="204" type="veh_passenger" depart="2166.00" from="o10ton29" to="n35too17"/>
    <trip id="205" type="veh_passenger" depart="2177.00" from="o1ton1" to="n28too9"/>
    <trip id="206" type="veh_passenger" depart="2184.00" from="n19ton20" to="n36too18"/>
    <trip id="207" type="veh_passenger" depart="2191.00" from="o16ton34" to="n31too13"/>
    <trip id="208" type="veh_passenger" depart="2202.00" from="o6ton26" to="o16ton34"/>
    <trip id="209" type="veh_passenger" depart="2219.00" from="n16ton25" to="n22ton33"/>
    <trip id="210" type="veh_passenger" depart="2220.00" from="n15ton8" to="n36too19"/>
    <trip id="211" type="veh_passenger" depart="2226.00" from="o16ton34" to="n32too14"/>
    <trip id="212" type="veh_passenger" depart="2237.00" from="o21ton16" to="n35too17"/>
    <trip id="213" type="veh_passenger" depart="2239.00" from="n18ton17" to="n28too9"/>
    <trip id="214" type="veh_passenger" depart="2259.00" from="o2ton2" to="n23ton34"/>
    <trip id="215" type="veh_passenger" depart="2260.00" from="o21ton16" to="n31too13"/>
    <trip id="216" type="veh_passenger" depart="2261.00" from="o13ton31" to="n26too7"/>
    <trip id="217" type="veh_passenger" depart="2271.00" from="o4ton10" to="n21ton20"/>
    <trip id="218" type="veh_passenger" depart="2285.00" from="n9too22" to="n2too2"/>
    <trip id="219" type="veh_passenger" depart="2291.00" from="o13ton31" to="n24ton35"/>
    <trip id="220" type="veh_passenger" depart="2295.00" from="n28ton27" to="n31too12"/>
    <trip id="221" type="veh_passenger" depart="2306.00" from="o11ton30" to="n20ton13"/>
    <trip id="222" type="veh_passenger" depart="2311.00" from="o1ton1" to="n5too3"/>
    <trip id="223" type="veh_passenger" depart="2317.00" from="o9ton28" to="n35too17"/>
    <trip id="224" type="veh_passenger" depart="2318.00" from="o6ton26" to="n8ton3"/>
    <trip id="225" type="veh_passenger" depart="2323.00" from="n19ton12" to="n17too5"/>
    <trip id="226" type="veh_passenger" depart="2325.00" from="o17ton35" to="n28too9"/>
    <trip id="227" type="veh_passenger" depart="2335.00" from="n28ton27" to="n36too19"/>
    <trip id="228" type="veh_passenger" depart="2351.00" from="o3ton5" to="n26too6"/>
    <trip id="229" type="veh_passenger" depart="2352.00" from="n31too13" to="n26too7"/>
    <trip id="230" type="veh_passenger" depart="2357.00" from="o11ton30" to="n29too10"/>
    <trip id="231" type="veh_passenger" depart="2363.00" from="o3ton5" to="o3ton5"/>
    <trip id="232" type="veh_passenger" depart="2372.00" from="n16ton15" to="n8ton9"/>
    <trip id="233" type="veh_passenger" depart="2378.00" from="o13ton31" to="n19ton18"/>
    <trip id="234" type="veh_passenger" depart="2382.00" from="o20ton25" to="n19ton28"/>
    <trip id="235" type="veh_passenger" depart="2387.00" from="o19ton36" to="n21ton22"/>
    <trip id="236" type="veh_passenger" depart="2391.00" from="n34too16" to="n17too5"/>
    <trip id="237" type="veh_passenger" depart="2411.00" from="o9ton28" to="n30too11"/>
    <trip id="238" type="veh_passenger" depart="2420.00" from="o9ton28" to="n1too24"/>
    <trip id="239" type="veh_passenger" depart="2431.00" from="o21ton16" to="o13ton31"/>
    <trip id="240" type="veh_passenger" depart="2440.00" from="n30ton29" to="n1too24"/>
    <trip id="241" type="veh_passenger" depart="2442.00" from="o6ton26" to="n1too1"/>
    <trip id="242" type="veh_passenger" depart="2448.00" from="o18ton36" to="n9too22"/>
    <trip id="243" type="veh_passenger" depart="2481.00" from="o18ton36" to="n9too22"/>
    <trip id="244" type="veh_passenger" depart="2492.00" from="o21ton16" to="n33ton32"/>
    <trip id="245" type="veh_passenger" depart="2497.00" from="n32ton33" to="n16too21"/>
    <trip id="246" type="veh_passenger" depart="2498.00" from="o10ton29" to="n35too17"/>
    <trip id="247" type="veh_passenger" depart="2510.00" from="o4ton10" to="n25too20"/>
    <trip id="248" type="veh_passenger" depart="2513.00" from="n25ton24" to="n27ton18"/>
    <trip id="249" type="veh_passenger" depart="2517.00" from="o18ton36" to="n32too14"/>
    <trip id="250" type="veh_passenger" depart="2519.00" from="o7ton26" to="n19ton12"/>
    <trip id="251" type="veh_passenger" depart="2531.00" from="o17ton35" to="n5ton10"/>
    <trip id="252" type="veh_passenger" depart="2539.00" from="n25ton24" to="n25too20"/>
    <trip id="253" type="veh_passenger" depart="2540.00" from="o4ton10" to="n25too20"/>
    <trip id="254" type="veh_passenger" depart="2544.00" from="o16ton34" to="n1too1"/>
    <trip id="255" type="veh_passenger" depart="2552.00" from="o23ton4" to="n33too15"/>
    <trip id="256" type="veh_passenger" depart="2553.00" from="n7ton12" to="n30too11"/>
    <trip id="257" type="veh_passenger" depart="2565.00" from="o6ton26" to="n35too17"/>
    <trip id="258" type="veh_passenger" depart="2587.00" from="o10ton29" to="n27too8"/>
    <trip id="259" type="veh_passenger" depart="2611.00" from="n34ton33" to="n17too5"/>
    <trip id="260" type="veh_passenger" depart="2614.00" from="o5ton17" to="n26too6"/>
    <trip id="261" type="veh_passenger" depart="2619.00" from="o2ton2" to="n25too20"/>
    <trip id="262" type="veh_passenger" depart="2623.00" from="o4ton10" to="n17too5"/>
    <trip id="263" type="veh_passenger" depart="2644.00" from="n27ton28" to="n4too23"/>
    <trip id="264" type="veh_passenger" depart="2655.00" from="n9too22" to="n31too13"/>
    <trip id="265" type="veh_passenger" depart="2674.00" from="o24ton1" to="n36too18"/>
    <trip id="266" type="veh_passenger" depart="2675.00" from="o6ton26" to="n33too15"/>
    <trip id="267" type="veh_passenger" depart="2677.00" from="n32ton21" to="n4ton1"/>
    <trip id="268" type="veh_passenger" depart="2698.00" from="o9ton28" to="n33ton32"/>
    <trip id="269" type="veh_passenger" depart="2718.00" from="o21ton16" to="n31too12"/>
    <trip id="270" type="veh_passenger" depart="2731.00" from="n21ton22" to="n22ton23"/>
    <trip id="271" type="veh_passenger" depart="2737.00" from="n8ton15" to="n36too18"/>
    <trip id="272" type="veh_passenger" depart="2748.00" from="o5ton17" to="n2too2"/>
    <trip id="273" type="veh_passenger" depart="2752.00" from="o4ton10" to="n17too5"/>
    <trip id="274" type="veh_passenger" depart="2765.00" from="n34ton33" to="n36too18"/>
    <trip id="275" type="veh_passenger" depart="2770.00" from="o19ton36" to="n32too14"/>
    <trip id="276" type="veh_passenger" depart="2774.00" from="n28ton19" to="n26too7"/>
    <trip id="277" type="veh_passenger" depart="2775.00" from="n4too23" to="n4too23"/>
    <trip id="278" type="veh_passenger" depart="2809.00" from="o5ton17" to="n22ton21"/>
    <trip id="279" type="veh_passenger" depart="2811.00" from="o9ton28" to="n33too15"/>
    <trip id="280" type="veh_passenger" depart="2813.00" from="o21ton16" to="n28too9"/>
    <trip id="281" type="veh_passenger" depart="2839.00" from="o14ton32" to="n1too24"/>
    <trip id="282" type="veh_passenger" depart="2842.00" from="o20ton25" to="n9ton4"/>
    <trip id="283" type="veh_passenger" depart="2846.00" from="o15ton33" to="n35too17"/>
    <trip id="284" type="veh_passenger" depart="2853.00" from="n25too20" to="n11ton18"/>
    <trip id="285" type="veh_passenger" depart="2858.00" from="o23ton4" to="n12ton11"/>
    <trip id="286" type="veh_passenger" depart="2866.00" from="o2ton2" to="n1too1"/>
    <trip id="287" type="veh_passenger" depart="2877.00" from="o7ton26" to="n18ton19"/>
    <trip id="288" type="veh_passenger" depart="2885.00" from="o20ton25" to="n4too23"/>
    <trip id="289" type="veh_passenger" depart="2891.00" from="n33ton22" to="n25too20"/>
    <trip id="290" type="veh_passenger" depart="2902.00" from="o20ton25" to="n21ton30"/>
    <trip id="291" type="veh_passenger" depart="2909.00" from="o1ton1" to="n18ton17"/>
    <trip id="292" type="veh_passenger" depart="2913.00" from="o14ton32" to="n20ton29"/>
    <trip id="293" type="veh_passenger" depart="2915.00" from="n2ton3" to="n33too15"/>
    <trip id="294" type="veh_passenger" depart="2929.00" from="n18ton19" to="n32ton31"/>
    <trip id="295" type="veh_passenger" depart="2937.00" from="n2ton3" to="n29too10"/>
    <trip id="296" type="veh_passenger" depart="2952.00" from="n24ton35" to="n17too5"/>
    <trip id="297" type="veh_passenger" depart="2975.00" from="o7ton26" to="n5ton10"/>
    <trip id="298" type="veh_passenger" depart="3028.00" from="n22ton33" to="n34ton23"/>
    <trip id="299" type="veh_passenger" depart="3038.00" from="o2ton2" to="n16too21"/>
    <trip id="300" type="veh_passenger" depart="3055.00" from="n32ton21" to="n32too14"/>
    <trip id="301" type="veh_passenger" depart="3084.00" from="o7ton26" to="n32too14"/>
    <trip id="302" type="veh_passenger" depart="3093.00" from="o14ton32" to="n28ton29"/>
    <trip id="303" type="veh_passenger" depart="3095.00" from="n2ton1" to="n1too24"/>
    <trip id="304" type="veh_passenger" depart="3104.00" from="o20ton25" to="n29ton28"/>
    <trip id="305" type="veh_passenger" depart="3121.00" from="o6ton26" to="n1too1"/>
    <trip id="306" type="veh_passenger" depart="3127.00" from="n16ton25" to="n34ton23"/>
    <trip id="307" type="veh_passenger" depart="3142.00" from="n15ton14" to="n36too19"/>
    <trip id="308" type="veh_passenger" depart="3150.00" from="o20ton25" to="n30too11"/>
    <trip id="309" type="veh_passenger" depart="3156.00" from="o7ton26" to="n16too21"/>
    <trip id="310" type="veh_passenger" depart="3159.00" from="o23ton4" to="n28too9"/>
    <trip id="311" type="veh_passenger" depart="3179.00" from="o18ton36" to="n30too11"/>
    <trip id="312" type="veh_passenger" depart="3201.00" from="n19ton18" to="n35too17"/>
    <trip id="313" type="veh_passenger" depart="3218.00" from="n31too12" to="n1too24"/>
    <trip id="314" type="veh_passenger" depart="3237.00" from="n17ton10" to="n10too4"/>
    <trip id="315" type="veh_passenger" depart="3239.00" from="o17ton35" to="n27too8"/>
    <trip id="316" type="veh_passenger" depart="3272.00" from="n9ton4" to="n11ton6"/>
    <trip id="317" type="veh_passenger" depart="3278.00" from="o9ton28" to="n26too6"/>
    <trip id="318" type="veh_passenger" depart="3302.00" from="o1ton1" to="n1too24"/>
    <trip id="319" type="veh_passenger" depart="3315.00" from="n14ton13" to="n31too12"/>
    <trip id="320" type="veh_passenger" depart="3318.00" from="o17ton35" to="n13ton12"/>
    <trip id="321" type="veh_passenger" depart="3324.00" from="o22ton9" to="n33too15"/>
    <trip id="322" type="veh_passenger" depart="3326.00" from="o12ton31" to="o7ton26"/>
    <trip id="323" type="veh_passenger" depart="3348.00" from="o13ton31" to="n32too14"/>
    <trip id="324" type="veh_passenger" depart="3349.00" from="o24ton1" to="n2too2"/>
    <trip id="325" type="veh_passenger" depart="3360.00" from="o15ton33" to="n1too24"/>
    <trip id="326" type="veh_passenger" depart="3368.00" from="n21ton32" to="n2ton1"/>