<?xml version="1.0" encoding="UTF-8"?>

<!-- generated on Thu Dec 31 16:24:04 2020 by Eclipse SUMO duarouter Version 1.8.0
<configuration xmlns:xsi="http://www.w3.org/2001/XMLSchema-instance" xsi:noNamespaceSchemaLocation="http://sumo.dlr.de/xsd/duarouterConfiguration.xsd">

    <input>
        <net-file value="/Users/Matteo/PycharmProjects/TrafficEmu/sumo_grid_simulation/simulation_input_files/grid.net.xml"/>
        <additional-files value="/Users/Matteo/PycharmProjects/TrafficEmu/sumo_grid_simulation/simulation_input_files/veh.add.xml"/>
        <route-files value="/Users/Matteo/PycharmProjects/TrafficEmu/sumo_grid_simulation/simulation_input_files/veh_passenger.trips.xml"/>
    </input>

    <output>
        <output-file value="/Users/Matteo/PycharmProjects/TrafficEmu/sumo_grid_simulation/simulation_input_files/veh_passenger.trips.xml.tmp"/>
        <write-trips value="true"/>
    </output>

    <time>
        <begin value="0.0"/>
        <end value="300.0"/>
    </time>

    <report>
        <no-warnings value="true"/>
        <ignore-errors value="true"/>
        <no-step-log value="true"/>
    </report>

</configuration>
-->

<routes xmlns:xsi="http://www.w3.org/2001/XMLSchema-instance" xsi:noNamespaceSchemaLocation="http://sumo.dlr.de/xsd/routes_file.xsd">
    <vType id="veh_passenger" maxSpeed="25.00" speedFactor="normc(1.00,0.10,0.20,2.00)" vClass="passenger" emissionClass="HBEFA3/PC_G_EU4" accel="6.0" decel="4.5"/>
    <trip id="0" type="veh_passenger" depart="1.00" from="o10ton9" to="n2too2"/>
    <trip id="1" type="veh_passenger" depart="5.00" from="o12ton1" to="n1too1"/>
    <trip id="2" type="veh_passenger" depart="8.00" from="n8too8" to="n7too7"/>
    <trip id="3" type="veh_passenger" depart="13.00" from="o6ton7" to="n7too7"/>
    <trip id="4" type="veh_passenger" depart="15.00" from="o9ton9" to="n5ton2"/>
    <trip id="5" type="veh_passenger" depart="16.00" from="n4too11" to="n9too10"/>
    <trip id="6" type="veh_passenger" depart="29.00" from="n9too9" to="n4too11"/>
    <trip id="7" type="veh_passenger" depart="30.00" from="o10ton9" to="n1too12"/>
    <trip id="8" type="veh_passenger" depart="40.00" from="o5ton6" to="n2too2"/>
    <trip id="9" type="veh_passenger" depart="49.00" from="o11ton4" to="n4ton9"/>
    <trip id="10" type="veh_passenger" depart="68.00" from="n2too2" to="n1too12"/>
    <trip id="11" type="veh_passenger" depart="72.00" from="o12ton1" to="o9ton9"/>
    <trip id="12" type="veh_passenger" depart="76.00" from="o5ton6" to="n7too7"/>
    <trip id="13" type="veh_passenger" depart="80.00" from="o1ton1" to="n5too4"/>
    <trip id="14" type="veh_passenger" depart="85.00" from="o8ton8" to="n9too9"/>
    <trip id="15" type="veh_passenger" depart="89.00" from="o6ton7" to="n6too5"/>
    <trip id="16" type="veh_passenger" depart="92.00" from="o11ton4" to="n1too1"/>
    <trip id="17" type="veh_passenger" depart="97.00" from="o8ton8" to="o1ton1"/>
    <trip id="18" type="veh_passenger" depart="98.00" from="o1ton1" to="n1too1"/>
    <trip id="19" type="veh_passenger" depart="101.00" from="o1ton1" to="n6too5"/>
    <trip id="20" type="veh_passenger" depart="114.00" from="n9too9" to="n5ton2"/>
    <trip id="21" type="veh_passenger" depart="118.00" from="o4ton5" to="n3ton2"/>
    <trip id="22" type="veh_passenger" depart="121.00" from="o10ton9" to="n7too7"/>
    <trip id="23" type="veh_passenger" depart="123.00" from="o8ton8" to="n7too6"/>
    <trip id="24" type="veh_passenger" depart="127.00" from="n4too11" to="n5too4"/>
    <trip id="25" type="veh_passenger" depart="133.00" from="o12ton1" to="n5ton2"/>
    <trip id="26" type="veh_passenger" depart="136.00" from="o1ton1" to="n5too4"/>
    <trip id="27" type="veh_passenger" depart="143.00" from="o9ton9" to="n9too10"/>
    <trip id="28" type="veh_passenger" depart="147.00" from="o1ton1" to="n2too2"/>
    <trip id="29" type="veh_passenger" depart="149.00" from="o12ton1" to="o7ton7"/>
    <trip id="30" type="veh_passenger" depart="158.00" from="o11ton4" to="o5ton6"/>
    <trip id="31" type="veh_passenger" depart="162.00" from="o3ton5" to="n6too5"/>
    <trip id="32" type="veh_passenger" depart="164.00" from="o9ton9" to="n1too12"/>
    <trip id="33" type="veh_passenger" depart="165.00" from="o3ton5" to="n7too7"/>
    <trip id="34" type="veh_passenger" depart="167.00" from="o8ton8" to="n3ton8"/>
    <trip id="35" type="veh_passenger" depart="182.00" from="o1ton1" to="o9ton9"/>
    <trip id="36" type="veh_passenger" depart="184.00" from="n9ton8" to="n4ton9"/>
    <trip id="37" type="veh_passenger" depart="189.00" from="o7ton7" to="n8ton3"/>
    <trip id="38" type="veh_passenger" depart="193.00" from="o7ton7" to="n4too11"/>
    <trip id="39" type="veh_passenger" depart="196.00" from="n5too3" to="n1too12"/>
    <trip id="40" type="veh_passenger" depart="207.00" from="o1ton1" to="n4too11"/>
    <trip id="41" type="veh_passenger" depart="208.00" from="o6ton7" to="n7too7"/>
    <trip id="42" type="veh_passenger" depart="213.00" from="n3ton8" to="n9too9"/>
    <trip id="43" type="veh_passenger" depart="218.00" from="n5too4" to="n4too11"/>
    <trip id="44" type="veh_passenger" depart="225.00" from="o6ton7" to="n9too9"/>
    <trip id="45" type="veh_passenger" depart="228.00" from="o8ton8" to="n9too9"/>
    <trip id="46" type="veh_passenger" depart="232.00" from="o5ton6" to="n4too11"/>
    <trip id="47" type="veh_passenger" depart="239.00" from="o8ton8" to="n9too10"/>
    <trip id="48" type="veh_passenger" depart="246.00" from="n8ton9" to="n4too11"/>
    <trip id="49" type="veh_passenger" depart="255.00" from="o9ton9" to="n2too2"/>
    <trip id="50" type="veh_passenger" depart="258.00" from="o1ton1" to="n8too8"/>
    <trip id="51" type="veh_passenger" depart="266.00" from="o8ton8" to="n6too5"/>
    <trip id="52" type="veh_passenger" depart="271.00" from="o4ton5" to="n4too11"/>
    <trip id="53" type="veh_passenger" depart="280.00" from="o12ton1" to="o12ton1"/>
    <trip id="54" type="veh_passenger" depart="286.00" from="o10ton9" to="n5too4"/>
    <trip id="55" type="veh_passenger" depart="295.00" from="n4ton3" to="n6too5"/>
</routes>
