<?xml version="1.0" encoding="UTF-8"?>

<!-- generated on Thu Dec 31 16:24:04 2020 by Eclipse SUMO duarouter Version 1.8.0
<configuration xmlns:xsi="http://www.w3.org/2001/XMLSchema-instance" xsi:noNamespaceSchemaLocation="http://sumo.dlr.de/xsd/duarouterConfiguration.xsd">

    <input>
        <net-file value="/Users/Matteo/PycharmProjects/TrafficEmu/sumo_grid_simulation/simulation_input_files/grid.net.xml"/>
        <additional-files value="/Users/Matteo/PycharmProjects/TrafficEmu/sumo_grid_simulation/simulation_input_files/veh.add.xml"/>
        <route-files value="/Users/Matteo/PycharmProjects/TrafficEmu/sumo_grid_simulation/simulation_input_files/veh_passenger.trips.xml"/>
    </input>

    <output>
        <output-file value="/Users/Matteo/PycharmProjects/TrafficEmu/sumo_grid_simulation/simulation_input_files/veh_passenger.rou.xml"/>
        <alternatives-output value="/Users/Matteo/PycharmProjects/TrafficEmu/sumo_grid_simulation/simulation_input_files/veh_passenger.rou.alt.xml"/>
    </output>

    <time>
        <begin value="0.0"/>
        <end value="300.0"/>
    </time>

    <report>
        <no-warnings value="true"/>
        <ignore-errors value="true"/>
        <no-step-log value="true"/>
    </report>

</configuration>
-->

<routes xmlns:xsi="http://www.w3.org/2001/XMLSchema-instance" xsi:noNamespaceSchemaLocation="http://sumo.dlr.de/xsd/routes_file.xsd">
    <vType id="veh_passenger" maxSpeed="25.00" speedFactor="normc(1.00,0.10,0.20,2.00)" vClass="passenger" emissionClass="HBEFA3/PC_G_EU4" accel="6.0" decel="4.5"/>
    <vehicle id="0" type="veh_passenger" depart="1.00">
        <route edges="o10ton9 n9ton8 n8ton3 n3ton2 n2too2"/>
    </vehicle>
    <vehicle id="1" type="veh_passenger" depart="5.00">
        <route edges="o12ton1 n1too1"/>
    </vehicle>
    <vehicle id="2" type="veh_passenger" depart="8.00">
        <route edges="n8too8 o8ton8 n8ton7 n7too7"/>
    </vehicle>
    <vehicle id="3" type="veh_passenger" depart="13.00">
        <route edges="o6ton7 n7too7"/>
    </vehicle>
    <vehicle id="4" type="veh_passenger" depart="15.00">
        <route edges="o9ton9 n9ton4 n4ton1 n1ton2 n2ton5 n5ton2"/>
    </vehicle>
    <vehicle id="5" type="veh_passenger" depart="16.00">
        <route edges="n4too11 o11ton4 n4ton9 n9too10"/>
    </vehicle>
    <vehicle id="6" type="veh_passenger" depart="29.00">
        <route edges="n9too9 o9ton9 n9ton4 n4too11"/>
    </vehicle>
    <vehicle id="7" type="veh_passenger" depart="30.00">
        <route edges="o10ton9 n9ton4 n4ton1 n1too12"/>
    </vehicle>
    <vehicle id="8" type="veh_passenger" depart="40.00">
        <route edges="o5ton6 n6ton3 n3ton2 n2too2"/>
    </vehicle>
    <vehicle id="9" type="veh_passenger" depart="49.00">
        <route edges="o11ton4 n4ton9"/>
    </vehicle>
    <vehicle id="10" type="veh_passenger" depart="68.00">
        <route edges="n2too2 o2ton2 n2ton1 n1too12"/>
    </vehicle>
    <vehicle id="11" type="veh_passenger" depart="72.00">
        <route edges="o12ton1 n1ton4 n4ton9 n9too9 o9ton9"/>
    </vehicle>
    <vehicle id="12" type="veh_passenger" depart="76.00">
        <route edges="o5ton6 n6ton7 n7too7"/>
    </vehicle>
    <vehicle id="13" type="veh_passenger" depart="80.00">
        <route edges="o1ton1 n1ton2 n2ton5 n5too4"/>
    </vehicle>
    <vehicle id="14" type="veh_passenger" depart="85.00">
        <route edges="o8ton8 n8ton9 n9too9"/>
    </vehicle>
    <vehicle id="15" type="veh_passenger" depart="89.00">
        <route edges="o6ton7 n7ton6 n6too5"/>
    </vehicle>
    <vehicle id="16" type="veh_passenger" depart="92.00">
        <route edges="o11ton4 n4ton1 n1too1"/>
    </vehicle>
    <vehicle id="17" type="veh_passenger" depart="97.00">
        <route edges="o8ton8 n8ton3 n3ton4 n4ton1 n1too1 o1ton1"/>
    </vehicle>
    <vehicle id="18" type="veh_passenger" depart="98.00">
        <route edges="o1ton1 n1too1"/>
    </vehicle>
    <vehicle id="19" type="veh_passenger" depart="101.00">
        <route edges="o1ton1 n1ton4 n4ton3 n3ton6 n6too5"/>
    </vehicle>
    <vehicle id="20" type="veh_passenger" depart="114.00">
        <route edges="n9too9 o9ton9 n9ton4 n4ton1 n1ton2 n2ton5 n5ton2"/>
    </vehicle>
    <vehicle id="21" type="veh_passenger" depart="118.00">
        <route edges="o4ton5 n5ton2 n2ton3 n3ton2"/>
    </vehicle>
    <vehicle id="22" type="veh_passenger" depart="121.00">
        <route edges="o10ton9 n9ton8 n8ton7 n7too7"/>
    </vehicle>
    <vehicle id="23" type="veh_passenger" depart="123.00">
        <route edges="o8ton8 n8ton7 n7too6"/>
    </vehicle>
    <vehicle id="24" type="veh_passenger" depart="127.00">
        <route edges="n4too11 o11ton4 n4ton3 n3ton2 n2ton5 n5too4"/>
    </vehicle>
    <vehicle id="25" type="veh_passenger" depart="133.00">
        <route edges="o12ton1 n1ton2 n2ton5 n5ton2"/>
    </vehicle>
    <vehicle id="26" type="veh_passenger" depart="136.00">
        <route edges="o1ton1 n1ton2 n2ton5 n5too4"/>
    </vehicle>
    <vehicle id="27" type="veh_passenger" depart="143.00">
        <route edges="o9ton9 n9too10"/>
    </vehicle>
    <vehicle id="28" type="veh_passenger" depart="147.00">
        <route edges="o1ton1 n1ton2 n2too2"/>
    </vehicle>
    <vehicle id="29" type="veh_passenger" depart="149.00">
        <route edges="o12ton1 n1ton2 n2ton5 n5ton6 n6ton7 n7too7 o7ton7"/>
    </vehicle>
    <vehicle id="30" type="veh_passenger" depart="158.00">
        <route edges="o11ton4 n4ton3 n3ton6 n6too5 o5ton6"/>
    </vehicle>
    <vehicle id="31" type="veh_passenger" depart="162.00">
        <route edges="o3ton5 n5ton6 n6too5"/>
    </vehicle>
    <vehicle id="32" type="veh_passenger" depart="164.00">
        <route edges="o9ton9 n9ton4 n4ton1 n1too12"/>
    </vehicle>
    <vehicle id="33" type="veh_passenger" depart="165.00">
        <route edges="o3ton5 n5ton6 n6ton7 n7too7"/>
    </vehicle>
    <vehicle id="34" type="veh_passenger" depart="167.00">
        <route edges="o8ton8 n8ton3 n3ton8"/>
    </vehicle>
    <vehicle id="35" type="veh_passenger" depart="182.00">
        <route edges="o1ton1 n1ton4 n4ton9 n9too9 o9ton9"/>
    </vehicle>
    <vehicle id="36" type="veh_passenger" depart="184.00">
        <route edges="n9ton8 n8ton3 n3ton4 n4ton9"/>
    </vehicle>
    <vehicle id="37" type="veh_passenger" depart="189.00">
        <route edges="o7ton7 n7ton8 n8ton3"/>
    </vehicle>
    <vehicle id="38" type="veh_passenger" depart="193.00">
        <route edges="o7ton7 n7ton6 n6ton3 n3ton4 n4too11"/>
    </vehicle>
    <vehicle id="39" type="veh_passenger" depart="196.00">
        <route edges="n5too3 o3ton5 n5ton2 n2ton1 n1too12"/>
    </vehicle>
    <vehicle id="40" type="veh_passenger" depart="207.00">
        <route edges="o1ton1 n1ton4 n4too11"/>
    </vehicle>
    <vehicle id="41" type="veh_passenger" depart="208.00">
        <route edges="o6ton7 n7too7"/>
    </vehicle>
    <vehicle id="42" type="veh_passenger" depart="213.00">
        <route edges="n3ton8 n8ton9 n9too9"/>
    </vehicle>
    <vehicle id="43" type="veh_passenger" depart="218.00">
        <route edges="n5too4 o4ton5 n5ton2 n2ton3 n3ton4 n4too11"/>
    </vehicle>
    <vehicle id="44" type="veh_passenger" depart="225.00">
        <route edges="o6ton7 n7ton8 n8ton9 n9too9"/>
    </vehicle>
    <vehicle id="45" type="veh_passenger" depart="228.00">
        <route edges="o8ton8 n8ton9 n9too9"/>
    </vehicle>
    <vehicle id="46" type="veh_passenger" depart="232.00">
        <route edges="o5ton6 n6ton3 n3ton4 n4too11"/>
    </vehicle>
    <vehicle id="47" type="veh_passenger" depart="239.00">
        <route edges="o8ton8 n8ton9 n9too10"/>
    </vehicle>
    <vehicle id="48" type="veh_passenger" depart="246.00">
        <route edges="n8ton9 n9ton4 n4too11"/>
    </vehicle>
    <vehicle id="49" type="veh_passenger" depart="255.00">
        <route edges="o9ton9 n9ton4 n4ton3 n3ton2 n2too2"/>
    </vehicle>
    <vehicle id="50" type="veh_passenger" depart="258.00">
        <route edges="o1ton1 n1ton4 n4ton3 n3ton8 n8too8"/>
    </vehicle>
    <vehicle id="51" type="veh_passenger" depart="266.00">
        <route edges="o8ton8 n8ton3 n3ton6 n6too5"/>
    </vehicle>
    <vehicle id="52" type="veh_passenger" depart="271.00">
        <route edges="o4ton5 n5ton2 n2ton1 n1ton4 n4too11"/>
    </vehicle>
    <vehicle id="53" type="veh_passenger" depart="280.00">
        <route edges="o12ton1"/>
    </vehicle>
    <vehicle id="54" type="veh_passenger" depart="286.00">
        <route edges="o10ton9 n9ton8 n8ton7 n7ton6 n6ton5 n5too4"/>
    </vehicle>
    <vehicle id="55" type="veh_passenger" depart="295.00">
        <route edges="n4ton3 n3ton6 n6too5"/>
    </vehicle>
</routes>
