<?xml version="1.0" ?>
<edges xmlns:xsi="http://www.w3.org/2001/XMLSchema-instance" xsi:noNamespaceSchemaLocation="http://sumo.dlr.de/xsd/edges_file.xsd">
	<edge id="e1to4" from="n1" to="n4" numLanes="2" speed="13.9" priority="0" type="normal_road"/>
	<edge id="e4to1" from="n4" to="n1" numLanes="2" speed="13.9" priority="0" type="normal_road"/>
	<edge id="e1to2" from="n1" to="n2" numLanes="2" speed="13.9" priority="0" type="normal_road"/>
	<edge id="e2to1" from="n2" to="n1" numLanes="2" speed="13.9" priority="0" type="normal_road"/>
	<edge id="e2to3" from="n2" to="n3" numLanes="2" speed="13.9" priority="0" type="normal_road"/>
	<edge id="e3to2" from="n3" to="n2" numLanes="2" speed="13.9" priority="0" type="normal_road"/>
	<edge id="e3to4" from="n3" to="n4" numLanes="2" speed="13.9" priority="0" type="normal_road"/>
	<edge id="e4to3" from="n4" to="n3" numLanes="2" speed="13.9" priority="0" type="normal_road"/>
	<edge id="e4to9" from="n4" to="n9" numLanes="2" speed="13.9" priority="0" type="normal_road"/>
	<edge id="e9to4" from="n9" to="n4" numLanes="2" speed="13.9" priority="0" type="normal_road"/>
	<edge id="e3to8" from="n3" to="n8" numLanes="2" speed="13.9" priority="0" type="normal_road"/>
	<edge id="e8to3" from="n8" to="n3" numLanes="2" speed="13.9" priority="0" type="normal_road"/>
	<edge id="e3to6" from="n3" to="n6" numLanes="2" speed="13.9" priority="0" type="normal_road"/>
	<edge id="e6to3" from="n6" to="n3" numLanes="2" speed="13.9" priority="0" type="normal_road"/>
	<edge id="e2to5" from="n2" to="n5" numLanes="2" speed="13.9" priority="0" type="normal_road"/>
	<edge id="e5to2" from="n5" to="n2" numLanes="2" speed="13.9" priority="0" type="normal_road"/>
	<edge id="e5to6" from="n5" to="n6" numLanes="2" speed="13.9" priority="0" type="normal_road"/>
	<edge id="e6to5" from="n6" to="n5" numLanes="2" speed="13.9" priority="0" type="normal_road"/>
	<edge id="e6to7" from="n6" to="n7" numLanes="2" speed="13.9" priority="0" type="normal_road"/>
	<edge id="e7to6" from="n7" to="n6" numLanes="2" speed="13.9" priority="0" type="normal_road"/>
	<edge id="e7to8" from="n7" to="n8" numLanes="2" speed="13.9" priority="0" type="normal_road"/>
	<edge id="e8to7" from="n8" to="n7" numLanes="2" speed="13.9" priority="0" type="normal_road"/>
	<edge id="e8to9" from="n8" to="n9" numLanes="2" speed="13.9" priority="0" type="normal_road"/>
	<edge id="e9to8" from="n9" to="n8" numLanes="2" speed="13.9" priority="0" type="normal_road"/>
	<edge id="e9to16" from="n9" to="n16" numLanes="2" speed="13.9" priority="0" type="normal_road"/>
	<edge id="e16to9" from="n16" to="n9" numLanes="2" speed="13.9" priority="0" type="normal_road"/>
	<edge id="e8to15" from="n8" to="n15" numLanes="2" speed="13.9" priority="0" type="normal_road"/>
	<edge id="e15to8" from="n15" to="n8" numLanes="2" speed="13.9" priority="0" type="normal_road"/>
	<edge id="e7to14" from="n7" to="n14" numLanes="2" speed="13.9" priority="0" type="normal_road"/>
	<edge id="e14to7" from="n14" to="n7" numLanes="2" speed="13.9" priority="0" type="normal_road"/>
	<edge id="e7to12" from="n7" to="n12" numLanes="2" speed="13.9" priority="0" type="normal_road"/>
	<edge id="e12to7" from="n12" to="n7" numLanes="2" speed="13.9" priority="0" type="normal_road"/>
	<edge id="e6to11" from="n6" to="n11" numLanes="2" speed="13.9" priority="0" type="normal_road"/>
	<edge id="e11to6" from="n11" to="n6" numLanes="2" speed="13.9" priority="0" type="normal_road"/>
	<edge id="e5to10" from="n5" to="n10" numLanes="2" speed="13.9" priority="0" type="normal_road"/>
	<edge id="e10to5" from="n10" to="n5" numLanes="2" speed="13.9" priority="0" type="normal_road"/>
	<edge id="e10to11" from="n10" to="n11" numLanes="2" speed="13.9" priority="0" type="normal_road"/>
	<edge id="e11to10" from="n11" to="n10" numLanes="2" speed="13.9" priority="0" type="normal_road"/>
	<edge id="e11to12" from="n11" to="n12" numLanes="2" speed="13.9" priority="0" type="normal_road"/>
	<edge id="e12to11" from="n12" to="n11" numLanes="2" speed="13.9" priority="0" type="normal_road"/>
	<edge id="e12to13" from="n12" to="n13" numLanes="2" speed="13.9" priority="0" type="normal_road"/>
	<edge id="e13to12" from="n13" to="n12" numLanes="2" speed="13.9" priority="0" type="normal_road"/>
	<edge id="e13to14" from="n13" to="n14" numLanes="2" speed="13.9" priority="0" type="normal_road"/>
	<edge id="e14to13" from="n14" to="n13" numLanes="2" speed="13.9" priority="0" type="normal_road"/>
	<edge id="e14to15" from="n14" to="n15" numLanes="2" speed="13.9" priority="0" type="normal_road"/>
	<edge id="e15to14" from="n15" to="n14" numLanes="2" speed="13.9" priority="0" type="normal_road"/>
	<edge id="e15to16" from="n15" to="n16" numLanes="2" speed="13.9" priority="0" type="normal_road"/>
	<edge id="e16to15" from="n16" to="n15" numLanes="2" speed="13.9" priority="0" type="normal_road"/>
</edges>
