<?xml version="1.0" encoding="UTF-8"?>

<!-- generated on Sun Dec 13 17:03:48 2020 by Eclipse SUMO netconvert Version 1.8.0
<configuration xmlns:xsi="http://www.w3.org/2001/XMLSchema-instance" xsi:noNamespaceSchemaLocation="http://sumo.dlr.de/xsd/netconvertConfiguration.xsd">

    <input>
        <node-files value="/Users/Matteo/PycharmProjects/TrafficEmu/grid-simulation/grid-plain-xml/nodes.nod.xml"/>
        <edge-files value="/Users/Matteo/PycharmProjects/TrafficEmu/grid-simulation/grid-plain-xml/edges.edg.xml"/>
        <type-files value="/Users/Matteo/PycharmProjects/TrafficEmu/grid-simulation/grid-plain-xml/edge_types.typ.xml"/>
    </input>

    <output>
        <output-file value="/Users/Matteo/PycharmProjects/TrafficEmu/grid-simulation/grid.net.xml"/>
    </output>

    <report>
        <aggregate-warnings value="5"/>
    </report>

</configuration>
-->

<net version="1.6" junctionCornerDetail="5" limitTurnSpeed="5.50" xmlns:xsi="http://www.w3.org/2001/XMLSchema-instance" xsi:noNamespaceSchemaLocation="http://sumo.dlr.de/xsd/net_file.xsd">

    <location netOffset="0.00,0.00" convBoundary="0.00,0.00,150.00,150.00" origBoundary="0.00,0.00,150.00,150.00" projParameter="!"/>

    <type id="normal_road" priority="0" numLanes="1" speed="13.90"/>
    <type id="normal_road_2lanes" priority="0" numLanes="2" speed="13.90"/>
    <type id="normal_road_3lanes" priority="0" numLanes="3" speed="13.90"/>
    <type id="normal_road_4lanes" priority="0" numLanes="4" speed="13.90"/>

    <edge id=":n1_0" function="internal">
        <lane id=":n1_0_0" index="0" speed="6.08" length="7.74" shape="-1.60,3.20 -1.30,1.10 -0.40,-0.40 1.10,-1.30 3.20,-1.60"/>
    </edge>
    <edge id=":n1_1" function="internal">
        <lane id=":n1_1_0" index="0" speed="3.90" length="2.58" shape="3.20,1.60 2.50,1.70 2.00,2.00 1.70,2.50 1.60,3.20"/>
    </edge>
    <edge id=":n10_0" function="internal">
        <lane id=":n10_0_0" index="0" speed="3.90" length="2.58" shape="148.40,3.20 148.30,2.50 148.00,2.00 147.50,1.70 146.80,1.60"/>
    </edge>
    <edge id=":n10_1" function="internal">
        <lane id=":n10_1_0" index="0" speed="6.08" length="7.74" shape="146.80,-1.60 148.90,-1.30 150.40,-0.40 151.30,1.10 151.60,3.20"/>
    </edge>
    <edge id=":n11_0" function="internal">
        <lane id=":n11_0_0" index="0" speed="6.51" length="9.03" shape="148.40,57.20 148.05,54.75 147.00,53.00 145.25,51.95 142.80,51.60"/>
    </edge>
    <edge id=":n11_1" function="internal">
        <lane id=":n11_1_0" index="0" speed="13.90" length="14.40" shape="148.40,57.20 148.40,42.80"/>
    </edge>
    <edge id=":n11_2" function="internal">
        <lane id=":n11_2_0" index="0" speed="3.65" length="4.67" shape="148.40,57.20 149.20,56.00 150.00,55.60 150.80,56.00 151.60,57.20"/>
    </edge>
    <edge id=":n11_3" function="internal">
        <lane id=":n11_3_0" index="0" speed="13.90" length="14.40" shape="151.60,42.80 151.60,57.20"/>
    </edge>
    <edge id=":n11_4" function="internal">
        <lane id=":n11_4_0" index="0" speed="8.00" length="14.19" shape="151.60,42.80 151.05,46.65 149.40,49.40 146.65,51.05 142.80,51.60"/>
    </edge>
    <edge id=":n11_5" function="internal">
        <lane id=":n11_5_0" index="0" speed="3.65" length="4.67" shape="151.60,42.80 150.80,44.00 150.00,44.40 149.20,44.00 148.40,42.80"/>
    </edge>
    <edge id=":n11_6" function="internal">
        <lane id=":n11_6_0" index="0" speed="6.51" length="9.03" shape="142.80,48.40 145.25,48.05 147.00,47.00 148.05,45.25 148.40,42.80"/>
    </edge>
    <edge id=":n11_7" function="internal">
        <lane id=":n11_7_0" index="0" speed="8.00" length="14.19" shape="142.80,48.40 146.65,48.95 149.40,50.60 151.05,53.35 151.60,57.20"/>
    </edge>
    <edge id=":n11_8" function="internal">
        <lane id=":n11_8_0" index="0" speed="3.65" length="4.67" shape="142.80,48.40 144.00,49.20 144.40,50.00 144.00,50.80 142.80,51.60"/>
    </edge>
    <edge id=":n12_0" function="internal">
        <lane id=":n12_0_0" index="0" speed="6.51" length="9.03" shape="148.40,107.20 148.05,104.75 147.00,103.00 145.25,101.95 142.80,101.60"/>
    </edge>
    <edge id=":n12_1" function="internal">
        <lane id=":n12_1_0" index="0" speed="13.90" length="14.40" shape="148.40,107.20 148.40,92.80"/>
    </edge>
    <edge id=":n12_2" function="internal">
        <lane id=":n12_2_0" index="0" speed="3.65" length="4.67" shape="148.40,107.20 149.20,106.00 150.00,105.60 150.80,106.00 151.60,107.20"/>
    </edge>
    <edge id=":n12_3" function="internal">
        <lane id=":n12_3_0" index="0" speed="13.90" length="14.40" shape="151.60,92.80 151.60,107.20"/>
    </edge>
    <edge id=":n12_4" function="internal">
        <lane id=":n12_4_0" index="0" speed="8.00" length="14.19" shape="151.60,92.80 151.05,96.65 149.40,99.40 146.65,101.05 142.80,101.60"/>
    </edge>
    <edge id=":n12_5" function="internal">
        <lane id=":n12_5_0" index="0" speed="3.65" length="4.67" shape="151.60,92.80 150.80,94.00 150.00,94.40 149.20,94.00 148.40,92.80"/>
    </edge>
    <edge id=":n12_6" function="internal">
        <lane id=":n12_6_0" index="0" speed="6.51" length="9.03" shape="142.80,98.40 145.25,98.05 147.00,97.00 148.05,95.25 148.40,92.80"/>
    </edge>
    <edge id=":n12_7" function="internal">
        <lane id=":n12_7_0" index="0" speed="8.00" length="14.19" shape="142.80,98.40 146.65,98.95 149.40,100.60 151.05,103.35 151.60,107.20"/>
    </edge>
    <edge id=":n12_8" function="internal">
        <lane id=":n12_8_0" index="0" speed="3.65" length="4.67" shape="142.80,98.40 144.00,99.20 144.40,100.00 144.00,100.80 142.80,101.60"/>
    </edge>
    <edge id=":n13_0" function="internal">
        <lane id=":n13_0_0" index="0" speed="6.08" length="7.74" shape="151.60,146.80 151.30,148.90 150.40,150.40 148.90,151.30 146.80,151.60"/>
    </edge>
    <edge id=":n13_1" function="internal">
        <lane id=":n13_1_0" index="0" speed="3.90" length="2.58" shape="146.80,148.40 147.50,148.30 148.00,148.00 148.30,147.50 148.40,146.80"/>
    </edge>
    <edge id=":n14_0" function="internal">
        <lane id=":n14_0_0" index="0" speed="13.90" length="14.40" shape="107.20,151.60 92.80,151.60"/>
    </edge>
    <edge id=":n14_1" function="internal">
        <lane id=":n14_1_0" index="0" speed="8.00" length="14.19" shape="107.20,151.60 103.35,151.05 100.60,149.40 98.95,146.65 98.40,142.80"/>
    </edge>
    <edge id=":n14_2" function="internal">
        <lane id=":n14_2_0" index="0" speed="3.65" length="4.67" shape="107.20,151.60 106.00,150.80 105.60,150.00 106.00,149.20 107.20,148.40"/>
    </edge>
    <edge id=":n14_3" function="internal">
        <lane id=":n14_3_0" index="0" speed="6.51" length="9.03" shape="101.60,142.80 101.95,145.25 103.00,147.00 104.75,148.05 107.20,148.40"/>
    </edge>
    <edge id=":n14_4" function="internal">
        <lane id=":n14_4_0" index="0" speed="8.00" length="14.19" shape="101.60,142.80 101.05,146.65 99.40,149.40 96.65,151.05 92.80,151.60"/>
    </edge>
    <edge id=":n14_5" function="internal">
        <lane id=":n14_5_0" index="0" speed="3.65" length="4.67" shape="101.60,142.80 100.80,144.00 100.00,144.40 99.20,144.00 98.40,142.80"/>
    </edge>
    <edge id=":n14_6" function="internal">
        <lane id=":n14_6_0" index="0" speed="6.51" length="9.03" shape="92.80,148.40 95.25,148.05 97.00,147.00 98.05,145.25 98.40,142.80"/>
    </edge>
    <edge id=":n14_7" function="internal">
        <lane id=":n14_7_0" index="0" speed="13.90" length="14.40" shape="92.80,148.40 107.20,148.40"/>
    </edge>
    <edge id=":n14_8" function="internal">
        <lane id=":n14_8_0" index="0" speed="3.65" length="4.67" shape="92.80,148.40 94.00,149.20 94.40,150.00 94.00,150.80 92.80,151.60"/>
    </edge>
    <edge id=":n15_0" function="internal">
        <lane id=":n15_0_0" index="0" speed="13.90" length="14.40" shape="57.20,151.60 42.80,151.60"/>
    </edge>
    <edge id=":n15_1" function="internal">
        <lane id=":n15_1_0" index="0" speed="8.00" length="14.19" shape="57.20,151.60 53.35,151.05 50.60,149.40 48.95,146.65 48.40,142.80"/>
    </edge>
    <edge id=":n15_2" function="internal">
        <lane id=":n15_2_0" index="0" speed="3.65" length="4.67" shape="57.20,151.60 56.00,150.80 55.60,150.00 56.00,149.20 57.20,148.40"/>
    </edge>
    <edge id=":n15_3" function="internal">
        <lane id=":n15_3_0" index="0" speed="6.51" length="9.03" shape="51.60,142.80 51.95,145.25 53.00,147.00 54.75,148.05 57.20,148.40"/>
    </edge>
    <edge id=":n15_4" function="internal">
        <lane id=":n15_4_0" index="0" speed="8.00" length="14.19" shape="51.60,142.80 51.05,146.65 49.40,149.40 46.65,151.05 42.80,151.60"/>
    </edge>
    <edge id=":n15_5" function="internal">
        <lane id=":n15_5_0" index="0" speed="3.65" length="4.67" shape="51.60,142.80 50.80,144.00 50.00,144.40 49.20,144.00 48.40,142.80"/>
    </edge>
    <edge id=":n15_6" function="internal">
        <lane id=":n15_6_0" index="0" speed="6.51" length="9.03" shape="42.80,148.40 45.25,148.05 47.00,147.00 48.05,145.25 48.40,142.80"/>
    </edge>
    <edge id=":n15_7" function="internal">
        <lane id=":n15_7_0" index="0" speed="13.90" length="14.40" shape="42.80,148.40 57.20,148.40"/>
    </edge>
    <edge id=":n15_8" function="internal">
        <lane id=":n15_8_0" index="0" speed="3.65" length="4.67" shape="42.80,148.40 44.00,149.20 44.40,150.00 44.00,150.80 42.80,151.60"/>
    </edge>
    <edge id=":n16_0" function="internal">
        <lane id=":n16_0_0" index="0" speed="6.08" length="7.74" shape="3.20,151.60 1.10,151.30 -0.40,150.40 -1.30,148.90 -1.60,146.80"/>
    </edge>
    <edge id=":n16_1" function="internal">
        <lane id=":n16_1_0" index="0" speed="3.90" length="2.58" shape="1.60,146.80 1.70,147.50 2.00,148.00 2.50,148.30 3.20,148.40"/>
    </edge>
    <edge id=":n2_0" function="internal">
        <lane id=":n2_0_0" index="0" speed="6.51" length="9.03" shape="48.40,7.20 48.05,4.75 47.00,3.00 45.25,1.95 42.80,1.60"/>
    </edge>
    <edge id=":n2_1" function="internal">
        <lane id=":n2_1_0" index="0" speed="8.00" length="14.19" shape="48.40,7.20 48.95,3.35 50.60,0.60 53.35,-1.05 57.20,-1.60"/>
    </edge>
    <edge id=":n2_2" function="internal">
        <lane id=":n2_2_0" index="0" speed="3.65" length="4.67" shape="48.40,7.20 49.20,6.00 50.00,5.60 50.80,6.00 51.60,7.20"/>
    </edge>
    <edge id=":n2_3" function="internal">
        <lane id=":n2_3_0" index="0" speed="6.51" length="9.03" shape="57.20,1.60 54.75,1.95 53.00,3.00 51.95,4.75 51.60,7.20"/>
    </edge>
    <edge id=":n2_4" function="internal">
        <lane id=":n2_4_0" index="0" speed="13.90" length="14.40" shape="57.20,1.60 42.80,1.60"/>
    </edge>
    <edge id=":n2_5" function="internal">
        <lane id=":n2_5_0" index="0" speed="3.65" length="4.67" shape="57.20,1.60 56.00,0.80 55.60,0.00 56.00,-0.80 57.20,-1.60"/>
    </edge>
    <edge id=":n2_6" function="internal">
        <lane id=":n2_6_0" index="0" speed="13.90" length="14.40" shape="42.80,-1.60 57.20,-1.60"/>
    </edge>
    <edge id=":n2_7" function="internal">
        <lane id=":n2_7_0" index="0" speed="8.00" length="14.19" shape="42.80,-1.60 46.65,-1.05 49.40,0.60 51.05,3.35 51.60,7.20"/>
    </edge>
    <edge id=":n2_8" function="internal">
        <lane id=":n2_8_0" index="0" speed="3.65" length="4.67" shape="42.80,-1.60 44.00,-0.80 44.40,0.00 44.00,0.80 42.80,1.60"/>
    </edge>
    <edge id=":n3_0" function="internal">
        <lane id=":n3_0_0" index="0" speed="6.51" length="9.03" shape="48.40,57.20 48.05,54.75 47.00,53.00 45.25,51.95 42.80,51.60"/>
    </edge>
    <edge id=":n3_1" function="internal">
        <lane id=":n3_1_0" index="0" speed="13.90" length="14.40" shape="48.40,57.20 48.40,42.80"/>
    </edge>
    <edge id=":n3_2" function="internal">
        <lane id=":n3_2_0" index="0" speed="8.00" length="14.19" shape="48.40,57.20 48.95,53.35 50.60,50.60 53.35,48.95 57.20,48.40"/>
    </edge>
    <edge id=":n3_3" function="internal">
        <lane id=":n3_3_0" index="0" speed="3.65" length="4.67" shape="48.40,57.20 49.20,56.00 50.00,55.60 50.80,56.00 51.60,57.20"/>
    </edge>
    <edge id=":n3_4" function="internal">
        <lane id=":n3_4_0" index="0" speed="6.51" length="9.03" shape="57.20,51.60 54.75,51.95 53.00,53.00 51.95,54.75 51.60,57.20"/>
    </edge>
    <edge id=":n3_5" function="internal">
        <lane id=":n3_5_0" index="0" speed="13.90" length="14.40" shape="57.20,51.60 42.80,51.60"/>
    </edge>
    <edge id=":n3_6" function="internal">
        <lane id=":n3_6_0" index="0" speed="8.00" length="14.19" shape="57.20,51.60 53.35,51.05 50.60,49.40 48.95,46.65 48.40,42.80"/>
    </edge>
    <edge id=":n3_7" function="internal">
        <lane id=":n3_7_0" index="0" speed="3.65" length="4.67" shape="57.20,51.60 56.00,50.80 55.60,50.00 56.00,49.20 57.20,48.40"/>
    </edge>
    <edge id=":n3_8" function="internal">
        <lane id=":n3_8_0" index="0" speed="6.51" length="9.03" shape="51.60,42.80 51.95,45.25 53.00,47.00 54.75,48.05 57.20,48.40"/>
    </edge>
    <edge id=":n3_9" function="internal">
        <lane id=":n3_9_0" index="0" speed="13.90" length="14.40" shape="51.60,42.80 51.60,57.20"/>
    </edge>
    <edge id=":n3_10" function="internal">
        <lane id=":n3_10_0" index="0" speed="8.00" length="14.19" shape="51.60,42.80 51.05,46.65 49.40,49.40 46.65,51.05 42.80,51.60"/>
    </edge>
    <edge id=":n3_11" function="internal">
        <lane id=":n3_11_0" index="0" speed="3.65" length="4.67" shape="51.60,42.80 50.80,44.00 50.00,44.40 49.20,44.00 48.40,42.80"/>
    </edge>
    <edge id=":n3_12" function="internal">
        <lane id=":n3_12_0" index="0" speed="6.51" length="9.03" shape="42.80,48.40 45.25,48.05 47.00,47.00 48.05,45.25 48.40,42.80"/>
    </edge>
    <edge id=":n3_13" function="internal">
        <lane id=":n3_13_0" index="0" speed="13.90" length="14.40" shape="42.80,48.40 57.20,48.40"/>
    </edge>
    <edge id=":n3_14" function="internal">
        <lane id=":n3_14_0" index="0" speed="8.00" length="14.19" shape="42.80,48.40 46.65,48.95 49.40,50.60 51.05,53.35 51.60,57.20"/>
    </edge>
    <edge id=":n3_15" function="internal">
        <lane id=":n3_15_0" index="0" speed="3.65" length="4.67" shape="42.80,48.40 44.00,49.20 44.40,50.00 44.00,50.80 42.80,51.60"/>
    </edge>
    <edge id=":n4_0" function="internal">
        <lane id=":n4_0_0" index="0" speed="13.90" length="14.40" shape="-1.60,57.20 -1.60,42.80"/>
    </edge>
    <edge id=":n4_1" function="internal">
        <lane id=":n4_1_0" index="0" speed="8.00" length="14.19" shape="-1.60,57.20 -1.05,53.35 0.60,50.60 3.35,48.95 7.20,48.40"/>
    </edge>
    <edge id=":n4_2" function="internal">
        <lane id=":n4_2_0" index="0" speed="3.65" length="4.67" shape="-1.60,57.20 -0.80,56.00 0.00,55.60 0.80,56.00 1.60,57.20"/>
    </edge>
    <edge id=":n4_3" function="internal">
        <lane id=":n4_3_0" index="0" speed="6.51" length="9.03" shape="7.20,51.60 4.75,51.95 3.00,53.00 1.95,54.75 1.60,57.20"/>
    </edge>
    <edge id=":n4_4" function="internal">
        <lane id=":n4_4_0" index="0" speed="8.00" length="14.19" shape="7.20,51.60 3.35,51.05 0.60,49.40 -1.05,46.65 -1.60,42.80"/>
    </edge>
    <edge id=":n4_5" function="internal">
        <lane id=":n4_5_0" index="0" speed="3.65" length="4.67" shape="7.20,51.60 6.00,50.80 5.60,50.00 6.00,49.20 7.20,48.40"/>
    </edge>
    <edge id=":n4_6" function="internal">
        <lane id=":n4_6_0" index="0" speed="6.51" length="9.03" shape="1.60,42.80 1.95,45.25 3.00,47.00 4.75,48.05 7.20,48.40"/>
    </edge>
    <edge id=":n4_7" function="internal">
        <lane id=":n4_7_0" index="0" speed="13.90" length="14.40" shape="1.60,42.80 1.60,57.20"/>
    </edge>
    <edge id=":n4_8" function="internal">
        <lane id=":n4_8_0" index="0" speed="3.65" length="4.67" shape="1.60,42.80 0.80,44.00 0.00,44.40 -0.80,44.00 -1.60,42.80"/>
    </edge>
    <edge id=":n5_0" function="internal">
        <lane id=":n5_0_0" index="0" speed="6.51" length="9.03" shape="98.40,7.20 98.05,4.75 97.00,3.00 95.25,1.95 92.80,1.60"/>
    </edge>
    <edge id=":n5_1" function="internal">
        <lane id=":n5_1_0" index="0" speed="8.00" length="14.19" shape="98.40,7.20 98.95,3.35 100.60,0.60 103.35,-1.05 107.20,-1.60"/>
    </edge>
    <edge id=":n5_2" function="internal">
        <lane id=":n5_2_0" index="0" speed="3.65" length="4.67" shape="98.40,7.20 99.20,6.00 100.00,5.60 100.80,6.00 101.60,7.20"/>
    </edge>
    <edge id=":n5_3" function="internal">
        <lane id=":n5_3_0" index="0" speed="6.51" length="9.03" shape="107.20,1.60 104.75,1.95 103.00,3.00 101.95,4.75 101.60,7.20"/>
    </edge>
    <edge id=":n5_4" function="internal">
        <lane id=":n5_4_0" index="0" speed="13.90" length="14.40" shape="107.20,1.60 92.80,1.60"/>
    </edge>
    <edge id=":n5_5" function="internal">
        <lane id=":n5_5_0" index="0" speed="3.65" length="4.67" shape="107.20,1.60 106.00,0.80 105.60,0.00 106.00,-0.80 107.20,-1.60"/>
    </edge>
    <edge id=":n5_6" function="internal">
        <lane id=":n5_6_0" index="0" speed="13.90" length="14.40" shape="92.80,-1.60 107.20,-1.60"/>
    </edge>
    <edge id=":n5_7" function="internal">
        <lane id=":n5_7_0" index="0" speed="8.00" length="14.19" shape="92.80,-1.60 96.65,-1.05 99.40,0.60 101.05,3.35 101.60,7.20"/>
    </edge>
    <edge id=":n5_8" function="internal">
        <lane id=":n5_8_0" index="0" speed="3.65" length="4.67" shape="92.80,-1.60 94.00,-0.80 94.40,0.00 94.00,0.80 92.80,1.60"/>
    </edge>
    <edge id=":n6_0" function="internal">
        <lane id=":n6_0_0" index="0" speed="6.51" length="9.03" shape="98.40,57.20 98.05,54.75 97.00,53.00 95.25,51.95 92.80,51.60"/>
    </edge>
    <edge id=":n6_1" function="internal">
        <lane id=":n6_1_0" index="0" speed="13.90" length="14.40" shape="98.40,57.20 98.40,42.80"/>
    </edge>
    <edge id=":n6_2" function="internal">
        <lane id=":n6_2_0" index="0" speed="8.00" length="14.19" shape="98.40,57.20 98.95,53.35 100.60,50.60 103.35,48.95 107.20,48.40"/>
    </edge>
    <edge id=":n6_3" function="internal">
        <lane id=":n6_3_0" index="0" speed="3.65" length="4.67" shape="98.40,57.20 99.20,56.00 100.00,55.60 100.80,56.00 101.60,57.20"/>
    </edge>
    <edge id=":n6_4" function="internal">
        <lane id=":n6_4_0" index="0" speed="6.51" length="9.03" shape="107.20,51.60 104.75,51.95 103.00,53.00 101.95,54.75 101.60,57.20"/>
    </edge>
    <edge id=":n6_5" function="internal">
        <lane id=":n6_5_0" index="0" speed="13.90" length="14.40" shape="107.20,51.60 92.80,51.60"/>
    </edge>
    <edge id=":n6_6" function="internal">
        <lane id=":n6_6_0" index="0" speed="8.00" length="14.19" shape="107.20,51.60 103.35,51.05 100.60,49.40 98.95,46.65 98.40,42.80"/>
    </edge>
    <edge id=":n6_7" function="internal">
        <lane id=":n6_7_0" index="0" speed="3.65" length="4.67" shape="107.20,51.60 106.00,50.80 105.60,50.00 106.00,49.20 107.20,48.40"/>
    </edge>
    <edge id=":n6_8" function="internal">
        <lane id=":n6_8_0" index="0" speed="6.51" length="9.03" shape="101.60,42.80 101.95,45.25 103.00,47.00 104.75,48.05 107.20,48.40"/>
    </edge>
    <edge id=":n6_9" function="internal">
        <lane id=":n6_9_0" index="0" speed="13.90" length="14.40" shape="101.60,42.80 101.60,57.20"/>
    </edge>
    <edge id=":n6_10" function="internal">
        <lane id=":n6_10_0" index="0" speed="8.00" length="14.19" shape="101.60,42.80 101.05,46.65 99.40,49.40 96.65,51.05 92.80,51.60"/>
    </edge>
    <edge id=":n6_11" function="internal">
        <lane id=":n6_11_0" index="0" speed="3.65" length="4.67" shape="101.60,42.80 100.80,44.00 100.00,44.40 99.20,44.00 98.40,42.80"/>
    </edge>
    <edge id=":n6_12" function="internal">
        <lane id=":n6_12_0" index="0" speed="6.51" length="9.03" shape="92.80,48.40 95.25,48.05 97.00,47.00 98.05,45.25 98.40,42.80"/>
    </edge>
    <edge id=":n6_13" function="internal">
        <lane id=":n6_13_0" index="0" speed="13.90" length="14.40" shape="92.80,48.40 107.20,48.40"/>
    </edge>
    <edge id=":n6_14" function="internal">
        <lane id=":n6_14_0" index="0" speed="8.00" length="14.19" shape="92.80,48.40 96.65,48.95 99.40,50.60 101.05,53.35 101.60,57.20"/>
    </edge>
    <edge id=":n6_15" function="internal">
        <lane id=":n6_15_0" index="0" speed="3.65" length="4.67" shape="92.80,48.40 94.00,49.20 94.40,50.00 94.00,50.80 92.80,51.60"/>
    </edge>
    <edge id=":n7_0" function="internal">
        <lane id=":n7_0_0" index="0" speed="6.51" length="9.03" shape="98.40,107.20 98.05,104.75 97.00,103.00 95.25,101.95 92.80,101.60"/>
    </edge>
    <edge id=":n7_1" function="internal">
        <lane id=":n7_1_0" index="0" speed="13.90" length="14.40" shape="98.40,107.20 98.40,92.80"/>
    </edge>
    <edge id=":n7_2" function="internal">
        <lane id=":n7_2_0" index="0" speed="8.00" length="14.19" shape="98.40,107.20 98.95,103.35 100.60,100.60 103.35,98.95 107.20,98.40"/>
    </edge>
    <edge id=":n7_3" function="internal">
        <lane id=":n7_3_0" index="0" speed="3.65" length="4.67" shape="98.40,107.20 99.20,106.00 100.00,105.60 100.80,106.00 101.60,107.20"/>
    </edge>
    <edge id=":n7_4" function="internal">
        <lane id=":n7_4_0" index="0" speed="6.51" length="9.03" shape="107.20,101.60 104.75,101.95 103.00,103.00 101.95,104.75 101.60,107.20"/>
    </edge>
    <edge id=":n7_5" function="internal">
        <lane id=":n7_5_0" index="0" speed="13.90" length="14.40" shape="107.20,101.60 92.80,101.60"/>
    </edge>
    <edge id=":n7_6" function="internal">
        <lane id=":n7_6_0" index="0" speed="8.00" length="14.19" shape="107.20,101.60 103.35,101.05 100.60,99.40 98.95,96.65 98.40,92.80"/>
    </edge>
    <edge id=":n7_7" function="internal">
        <lane id=":n7_7_0" index="0" speed="3.65" length="4.67" shape="107.20,101.60 106.00,100.80 105.60,100.00 106.00,99.20 107.20,98.40"/>
    </edge>
    <edge id=":n7_8" function="internal">
        <lane id=":n7_8_0" index="0" speed="6.51" length="9.03" shape="101.60,92.80 101.95,95.25 103.00,97.00 104.75,98.05 107.20,98.40"/>
    </edge>
    <edge id=":n7_9" function="internal">
        <lane id=":n7_9_0" index="0" speed="13.90" length="14.40" shape="101.60,92.80 101.60,107.20"/>
    </edge>
    <edge id=":n7_10" function="internal">
        <lane id=":n7_10_0" index="0" speed="8.00" length="14.19" shape="101.60,92.80 101.05,96.65 99.40,99.40 96.65,101.05 92.80,101.60"/>
    </edge>
    <edge id=":n7_11" function="internal">
        <lane id=":n7_11_0" index="0" speed="3.65" length="4.67" shape="101.60,92.80 100.80,94.00 100.00,94.40 99.20,94.00 98.40,92.80"/>
    </edge>
    <edge id=":n7_12" function="internal">
        <lane id=":n7_12_0" index="0" speed="6.51" length="9.03" shape="92.80,98.40 95.25,98.05 97.00,97.00 98.05,95.25 98.40,92.80"/>
    </edge>
    <edge id=":n7_13" function="internal">
        <lane id=":n7_13_0" index="0" speed="13.90" length="14.40" shape="92.80,98.40 107.20,98.40"/>
    </edge>
    <edge id=":n7_14" function="internal">
        <lane id=":n7_14_0" index="0" speed="8.00" length="14.19" shape="92.80,98.40 96.65,98.95 99.40,100.60 101.05,103.35 101.60,107.20"/>
    </edge>
    <edge id=":n7_15" function="internal">
        <lane id=":n7_15_0" index="0" speed="3.65" length="4.67" shape="92.80,98.40 94.00,99.20 94.40,100.00 94.00,100.80 92.80,101.60"/>
    </edge>
    <edge id=":n8_0" function="internal">
        <lane id=":n8_0_0" index="0" speed="6.51" length="9.03" shape="48.40,107.20 48.05,104.75 47.00,103.00 45.25,101.95 42.80,101.60"/>
    </edge>
    <edge id=":n8_1" function="internal">
        <lane id=":n8_1_0" index="0" speed="13.90" length="14.40" shape="48.40,107.20 48.40,92.80"/>
    </edge>
    <edge id=":n8_2" function="internal">
        <lane id=":n8_2_0" index="0" speed="8.00" length="14.19" shape="48.40,107.20 48.95,103.35 50.60,100.60 53.35,98.95 57.20,98.40"/>
    </edge>
    <edge id=":n8_3" function="internal">
        <lane id=":n8_3_0" index="0" speed="3.65" length="4.67" shape="48.40,107.20 49.20,106.00 50.00,105.60 50.80,106.00 51.60,107.20"/>
    </edge>
    <edge id=":n8_4" function="internal">
        <lane id=":n8_4_0" index="0" speed="6.51" length="9.03" shape="57.20,101.60 54.75,101.95 53.00,103.00 51.95,104.75 51.60,107.20"/>
    </edge>
    <edge id=":n8_5" function="internal">
        <lane id=":n8_5_0" index="0" speed="13.90" length="14.40" shape="57.20,101.60 42.80,101.60"/>
    </edge>
    <edge id=":n8_6" function="internal">
        <lane id=":n8_6_0" index="0" speed="8.00" length="14.19" shape="57.20,101.60 53.35,101.05 50.60,99.40 48.95,96.65 48.40,92.80"/>
    </edge>
    <edge id=":n8_7" function="internal">
        <lane id=":n8_7_0" index="0" speed="3.65" length="4.67" shape="57.20,101.60 56.00,100.80 55.60,100.00 56.00,99.20 57.20,98.40"/>
    </edge>
    <edge id=":n8_8" function="internal">
        <lane id=":n8_8_0" index="0" speed="6.51" length="9.03" shape="51.60,92.80 51.95,95.25 53.00,97.00 54.75,98.05 57.20,98.40"/>
    </edge>
    <edge id=":n8_9" function="internal">
        <lane id=":n8_9_0" index="0" speed="13.90" length="14.40" shape="51.60,92.80 51.60,107.20"/>
    </edge>
    <edge id=":n8_10" function="internal">
        <lane id=":n8_10_0" index="0" speed="8.00" length="14.19" shape="51.60,92.80 51.05,96.65 49.40,99.40 46.65,101.05 42.80,101.60"/>
    </edge>
    <edge id=":n8_11" function="internal">
        <lane id=":n8_11_0" index="0" speed="3.65" length="4.67" shape="51.60,92.80 50.80,94.00 50.00,94.40 49.20,94.00 48.40,92.80"/>
    </edge>
    <edge id=":n8_12" function="internal">
        <lane id=":n8_12_0" index="0" speed="6.51" length="9.03" shape="42.80,98.40 45.25,98.05 47.00,97.00 48.05,95.25 48.40,92.80"/>
    </edge>
    <edge id=":n8_13" function="internal">
        <lane id=":n8_13_0" index="0" speed="13.90" length="14.40" shape="42.80,98.40 57.20,98.40"/>
    </edge>
    <edge id=":n8_14" function="internal">
        <lane id=":n8_14_0" index="0" speed="8.00" length="14.19" shape="42.80,98.40 46.65,98.95 49.40,100.60 51.05,103.35 51.60,107.20"/>
    </edge>
    <edge id=":n8_15" function="internal">
        <lane id=":n8_15_0" index="0" speed="3.65" length="4.67" shape="42.80,98.40 44.00,99.20 44.40,100.00 44.00,100.80 42.80,101.60"/>
    </edge>
    <edge id=":n9_0" function="internal">
        <lane id=":n9_0_0" index="0" speed="13.90" length="14.40" shape="-1.60,107.20 -1.60,92.80"/>
    </edge>
    <edge id=":n9_1" function="internal">
        <lane id=":n9_1_0" index="0" speed="8.00" length="14.19" shape="-1.60,107.20 -1.05,103.35 0.60,100.60 3.35,98.95 7.20,98.40"/>
    </edge>
    <edge id=":n9_2" function="internal">
        <lane id=":n9_2_0" index="0" speed="3.65" length="4.67" shape="-1.60,107.20 -0.80,106.00 0.00,105.60 0.80,106.00 1.60,107.20"/>
    </edge>
    <edge id=":n9_3" function="internal">
        <lane id=":n9_3_0" index="0" speed="6.51" length="9.03" shape="7.20,101.60 4.75,101.95 3.00,103.00 1.95,104.75 1.60,107.20"/>
    </edge>
    <edge id=":n9_4" function="internal">
        <lane id=":n9_4_0" index="0" speed="8.00" length="14.19" shape="7.20,101.60 3.35,101.05 0.60,99.40 -1.05,96.65 -1.60,92.80"/>
    </edge>
    <edge id=":n9_5" function="internal">
        <lane id=":n9_5_0" index="0" speed="3.65" length="4.67" shape="7.20,101.60 6.00,100.80 5.60,100.00 6.00,99.20 7.20,98.40"/>
    </edge>
    <edge id=":n9_6" function="internal">
        <lane id=":n9_6_0" index="0" speed="6.51" length="9.03" shape="1.60,92.80 1.95,95.25 3.00,97.00 4.75,98.05 7.20,98.40"/>
    </edge>
    <edge id=":n9_7" function="internal">
        <lane id=":n9_7_0" index="0" speed="13.90" length="14.40" shape="1.60,92.80 1.60,107.20"/>
    </edge>
    <edge id=":n9_8" function="internal">
        <lane id=":n9_8_0" index="0" speed="3.65" length="4.67" shape="1.60,92.80 0.80,94.00 0.00,94.40 -0.80,94.00 -1.60,92.80"/>
    </edge>

    <edge id="e10to11" from="n10" to="n11" priority="0" type="normal_road">
        <lane id="e10to11_0" index="0" speed="13.90" length="39.60" shape="151.60,3.20 151.60,42.80"/>
    </edge>
    <edge id="e10to5" from="n10" to="n5" priority="0" type="normal_road">
        <lane id="e10to5_0" index="0" speed="13.90" length="39.60" shape="146.80,1.60 107.20,1.60"/>
    </edge>
    <edge id="e11to10" from="n11" to="n10" priority="0" type="normal_road">
        <lane id="e11to10_0" index="0" speed="13.90" length="39.60" shape="148.40,42.80 148.40,3.20"/>
    </edge>
    <edge id="e11to12" from="n11" to="n12" priority="0" type="normal_road">
        <lane id="e11to12_0" index="0" speed="13.90" length="35.60" shape="151.60,57.20 151.60,92.80"/>
    </edge>
    <edge id="e11to6" from="n11" to="n6" priority="0" type="normal_road">
        <lane id="e11to6_0" index="0" speed="13.90" length="35.60" shape="142.80,51.60 107.20,51.60"/>
    </edge>
    <edge id="e12to11" from="n12" to="n11" priority="0" type="normal_road">
        <lane id="e12to11_0" index="0" speed="13.90" length="35.60" shape="148.40,92.80 148.40,57.20"/>
    </edge>
    <edge id="e12to13" from="n12" to="n13" priority="0" type="normal_road">
        <lane id="e12to13_0" index="0" speed="13.90" length="39.60" shape="151.60,107.20 151.60,146.80"/>
    </edge>
    <edge id="e12to7" from="n12" to="n7" priority="0" type="normal_road">
        <lane id="e12to7_0" index="0" speed="13.90" length="35.60" shape="142.80,101.60 107.20,101.60"/>
    </edge>
    <edge id="e13to12" from="n13" to="n12" priority="0" type="normal_road">
        <lane id="e13to12_0" index="0" speed="13.90" length="39.60" shape="148.40,146.80 148.40,107.20"/>
    </edge>
    <edge id="e13to14" from="n13" to="n14" priority="0" type="normal_road">
        <lane id="e13to14_0" index="0" speed="13.90" length="39.60" shape="146.80,151.60 107.20,151.60"/>
    </edge>
    <edge id="e14to13" from="n14" to="n13" priority="0" type="normal_road">