<?xml version="1.0" encoding="UTF-8"?>

<routes xmlns:xsi="http://www.w3.org/2001/XMLSchema-instance" xsi:noNamespaceSchemaLocation="http://sumo.dlr.de/xsd/routes_file.xsd">

    <vType id="car" length="3.50" maxSpeed="10.00" vClass="passenger" accel="3.5" decel="2.2" sigma="0.0"/>

    <route edges="e43 e36 e67" color="yellow" id="route_0"/>
    <route edges="e23 e36 e67" color="yellow" id="route_1"/>

    <vehicle id="vehicle_0" type="car" depart="0.00" route="route_0"/>
    <vehicle id="vehicle_1" type="car" depart="0.00" route="route_0"/>
    <vehicle id="vehicle_2" type="car" depart="0.00" route="route_1"/>
    <vehicle id="vehicle_3" type="car" depart="0.00" route="route_1"/>

</routes>
