<?xml version="1.0" encoding="UTF-8"?>

<!-- generated on Sun Dec 13 11:20:54 2020 by Eclipse SUMO netconvert Version 1.8.0
<configuration xmlns:xsi="http://www.w3.org/2001/XMLSchema-instance" xsi:noNamespaceSchemaLocation="http://sumo.dlr.de/xsd/netconvertConfiguration.xsd">

    <input>
        <node-files value="/Users/Matteo/PycharmProjects/TrafficEmu/grid-simulation/grid-plain-xml/nodes.nod.xml"/>
        <edge-files value="/Users/Matteo/PycharmProjects/TrafficEmu/grid-simulation/grid-plain-xml/edges.edg.xml"/>
        <type-files value="/Users/Matteo/PycharmProjects/TrafficEmu/grid-simulation/grid-plain-xml/edge_types.typ.xml"/>
    </input>

    <output>
        <output-file value="/Users/Matteo/PycharmProjects/TrafficEmu/grid-simulation/grid.net.xml"/>
    </output>

    <report>
        <aggregate-warnings value="5"/>
    </report>

</configuration>
-->

<net version="1.6" junctionCornerDetail="5" limitTurnSpeed="5.50" xmlns:xsi="http://www.w3.org/2001/XMLSchema-instance" xsi:noNamespaceSchemaLocation="http://sumo.dlr.de/xsd/net_file.xsd">

    <location netOffset="0.00,0.00" convBoundary="0.00,0.00,100.00,100.00" origBoundary="0.00,0.00,100.00,100.00" projParameter="!"/>

    <type id="normal_road" priority="0" numLanes="1" speed="13.90"/>
    <type id="normal_road_2lanes" priority="0" numLanes="2" speed="13.90"/>
    <type id="normal_road_3lanes" priority="0" numLanes="3" speed="13.90"/>
    <type id="normal_road_4lanes" priority="0" numLanes="4" speed="13.90"/>

    <edge id=":n1_0" function="internal">
        <lane id=":n1_0_0" index="0" speed="6.08" length="7.74" shape="-1.60,3.20 -1.30,1.10 -0.40,-0.40 1.10,-1.30 3.20,-1.60"/>
    </edge>
    <edge id=":n1_1" function="internal">
        <lane id=":n1_1_0" index="0" speed="3.90" length="2.58" shape="3.20,1.60 2.50,1.70 2.00,2.00 1.70,2.50 1.60,3.20"/>
    </edge>
    <edge id=":n2_0" function="internal">
        <lane id=":n2_0_0" index="0" speed="6.51" length="9.03" shape="48.40,7.20 48.05,4.75 47.00,3.00 45.25,1.95 42.80,1.60"/>
    </edge>
    <edge id=":n2_1" function="internal">
        <lane id=":n2_1_0" index="0" speed="8.00" length="14.19" shape="48.40,7.20 48.95,3.35 50.60,0.60 53.35,-1.05 57.20,-1.60"/>
    </edge>
    <edge id=":n2_2" function="internal">
        <lane id=":n2_2_0" index="0" speed="3.65" length="4.67" shape="48.40,7.20 49.20,6.00 50.00,5.60 50.80,6.00 51.60,7.20"/>
    </edge>
    <edge id=":n2_3" function="internal">
        <lane id=":n2_3_0" index="0" speed="6.51" length="9.03" shape="57.20,1.60 54.75,1.95 53.00,3.00 51.95,4.75 51.60,7.20"/>
    </edge>
    <edge id=":n2_4" function="internal">
        <lane id=":n2_4_0" index="0" speed="13.90" length="14.40" shape="57.20,1.60 42.80,1.60"/>
    </edge>
    <edge id=":n2_5" function="internal">
        <lane id=":n2_5_0" index="0" speed="3.65" length="4.67" shape="57.20,1.60 56.00,0.80 55.60,0.00 56.00,-0.80 57.20,-1.60"/>
    </edge>
    <edge id=":n2_6" function="internal">
        <lane id=":n2_6_0" index="0" speed="13.90" length="14.40" shape="42.80,-1.60 57.20,-1.60"/>
    </edge>
    <edge id=":n2_7" function="internal">
        <lane id=":n2_7_0" index="0" speed="8.00" length="14.19" shape="42.80,-1.60 46.65,-1.05 49.40,0.60 51.05,3.35 51.60,7.20"/>
    </edge>
    <edge id=":n2_8" function="internal">
        <lane id=":n2_8_0" index="0" speed="3.65" length="4.67" shape="42.80,-1.60 44.00,-0.80 44.40,0.00 44.00,0.80 42.80,1.60"/>
    </edge>
    <edge id=":n3_0" function="internal">
        <lane id=":n3_0_0" index="0" speed="6.51" length="9.03" shape="48.40,57.20 48.05,54.75 47.00,53.00 45.25,51.95 42.80,51.60"/>
    </edge>
    <edge id=":n3_1" function="internal">
        <lane id=":n3_1_0" index="0" speed="13.90" length="14.40" shape="48.40,57.20 48.40,42.80"/>
    </edge>
    <edge id=":n3_2" function="internal">
        <lane id=":n3_2_0" index="0" speed="8.00" length="14.19" shape="48.40,57.20 48.95,53.35 50.60,50.60 53.35,48.95 57.20,48.40"/>
    </edge>
    <edge id=":n3_3" function="internal">
        <lane id=":n3_3_0" index="0" speed="3.65" length="4.67" shape="48.40,57.20 49.20,56.00 50.00,55.60 50.80,56.00 51.60,57.20"/>
    </edge>
    <edge id=":n3_4" function="internal">
        <lane id=":n3_4_0" index="0" speed="6.51" length="9.03" shape="57.20,51.60 54.75,51.95 53.00,53.00 51.95,54.75 51.60,57.20"/>
    </edge>
    <edge id=":n3_5" function="internal">
        <lane id=":n3_5_0" index="0" speed="13.90" length="14.40" shape="57.20,51.60 42.80,51.60"/>
    </edge>
    <edge id=":n3_6" function="internal">
        <lane id=":n3_6_0" index="0" speed="8.00" length="14.19" shape="57.20,51.60 53.35,51.05 50.60,49.40 48.95,46.65 48.40,42.80"/>
    </edge>
    <edge id=":n3_7" function="internal">
        <lane id=":n3_7_0" index="0" speed="3.65" length="4.67" shape="57.20,51.60 56.00,50.80 55.60,50.00 56.00,49.20 57.20,48.40"/>
    </edge>
    <edge id=":n3_8" function="internal">
        <lane id=":n3_8_0" index="0" speed="6.51" length="9.03" shape="51.60,42.80 51.95,45.25 53.00,47.00 54.75,48.05 57.20,48.40"/>
    </edge>
    <edge id=":n3_9" function="internal">
        <lane id=":n3_9_0" index="0" speed="13.90" length="14.40" shape="51.60,42.80 51.60,57.20"/>
    </edge>
    <edge id=":n3_10" function="internal">
        <lane id=":n3_10_0" index="0" speed="8.00" length="14.19" shape="51.60,42.80 51.05,46.65 49.40,49.40 46.65,51.05 42.80,51.60"/>
    </edge>
    <edge id=":n3_11" function="internal">
        <lane id=":n3_11_0" index="0" speed="3.65" length="4.67" shape="51.60,42.80 50.80,44.00 50.00,44.40 49.20,44.00 48.40,42.80"/>
    </edge>
    <edge id=":n3_12" function="internal">
        <lane id=":n3_12_0" index="0" speed="6.51" length="9.03" shape="42.80,48.40 45.25,48.05 47.00,47.00 48.05,45.25 48.40,42.80"/>
    </edge>
    <edge id=":n3_13" function="internal">
        <lane id=":n3_13_0" index="0" speed="13.90" length="14.40" shape="42.80,48.40 57.20,48.40"/>
    </edge>
    <edge id=":n3_14" function="internal">
        <lane id=":n3_14_0" index="0" speed="8.00" length="14.19" shape="42.80,48.40 46.65,48.95 49.40,50.60 51.05,53.35 51.60,57.20"/>
    </edge>
    <edge id=":n3_15" function="internal">
        <lane id=":n3_15_0" index="0" speed="3.65" length="4.67" shape="42.80,48.40 44.00,49.20 44.40,50.00 44.00,50.80 42.80,51.60"/>
    </edge>
    <edge id=":n4_0" function="internal">
        <lane id=":n4_0_0" index="0" speed="13.90" length="14.40" shape="-1.60,57.20 -1.60,42.80"/>
    </edge>
    <edge id=":n4_1" function="internal">
        <lane id=":n4_1_0" index="0" speed="8.00" length="14.19" shape="-1.60,57.20 -1.05,53.35 0.60,50.60 3.35,48.95 7.20,48.40"/>
    </edge>
    <edge id=":n4_2" function="internal">
        <lane id=":n4_2_0" index="0" speed="3.65" length="4.67" shape="-1.60,57.20 -0.80,56.00 0.00,55.60 0.80,56.00 1.60,57.20"/>
    </edge>
    <edge id=":n4_3" function="internal">
        <lane id=":n4_3_0" index="0" speed="6.51" length="9.03" shape="7.20,51.60 4.75,51.95 3.00,53.00 1.95,54.75 1.60,57.20"/>
    </edge>
    <edge id=":n4_4" function="internal">
        <lane id=":n4_4_0" index="0" speed="8.00" length="14.19" shape="7.20,51.60 3.35,51.05 0.60,49.40 -1.05,46.65 -1.60,42.80"/>
    </edge>
    <edge id=":n4_5" function="internal">
        <lane id=":n4_5_0" index="0" speed="3.65" length="4.67" shape="7.20,51.60 6.00,50.80 5.60,50.00 6.00,49.20 7.20,48.40"/>
    </edge>
    <edge id=":n4_6" function="internal">
        <lane id=":n4_6_0" index="0" speed="6.51" length="9.03" shape="1.60,42.80 1.95,45.25 3.00,47.00 4.75,48.05 7.20,48.40"/>
    </edge>
    <edge id=":n4_7" function="internal">
        <lane id=":n4_7_0" index="0" speed="13.90" length="14.40" shape="1.60,42.80 1.60,57.20"/>
    </edge>
    <edge id=":n4_8" function="internal">
        <lane id=":n4_8_0" index="0" speed="3.65" length="4.67" shape="1.60,42.80 0.80,44.00 0.00,44.40 -0.80,44.00 -1.60,42.80"/>
    </edge>
    <edge id=":n5_0" function="internal">
        <lane id=":n5_0_0" index="0" speed="3.90" length="2.58" shape="98.40,3.20 98.30,2.50 98.00,2.00 97.50,1.70 96.80,1.60"/>
    </edge>
    <edge id=":n5_1" function="internal">
        <lane id=":n5_1_0" index="0" speed="6.08" length="7.74" shape="96.80,-1.60 98.90,-1.30 100.40,-0.40 101.30,1.10 101.60,3.20"/>
    </edge>
    <edge id=":n6_0" function="internal">
        <lane id=":n6_0_0" index="0" speed="6.51" length="9.03" shape="98.40,57.20 98.05,54.75 97.00,53.00 95.25,51.95 92.80,51.60"/>
    </edge>
    <edge id=":n6_1" function="internal">
        <lane id=":n6_1_0" index="0" speed="13.90" length="14.40" shape="98.40,57.20 98.40,42.80"/>
    </edge>
    <edge id=":n6_2" function="internal">
        <lane id=":n6_2_0" index="0" speed="3.65" length="4.67" shape="98.40,57.20 99.20,56.00 100.00,55.60 100.80,56.00 101.60,57.20"/>
    </edge>
    <edge id=":n6_3" function="internal">
        <lane id=":n6_3_0" index="0" speed="13.90" length="14.40" shape="101.60,42.80 101.60,57.20"/>
    </edge>
    <edge id=":n6_4" function="internal">
        <lane id=":n6_4_0" index="0" speed="8.00" length="14.19" shape="101.60,42.80 101.05,46.65 99.40,49.40 96.65,51.05 92.80,51.60"/>
    </edge>
    <edge id=":n6_5" function="internal">
        <lane id=":n6_5_0" index="0" speed="3.65" length="4.67" shape="101.60,42.80 100.80,44.00 100.00,44.40 99.20,44.00 98.40,42.80"/>
    </edge>
    <edge id=":n6_6" function="internal">
        <lane id=":n6_6_0" index="0" speed="6.51" length="9.03" shape="92.80,48.40 95.25,48.05 97.00,47.00 98.05,45.25 98.40,42.80"/>
    </edge>
    <edge id=":n6_7" function="internal">
        <lane id=":n6_7_0" index="0" speed="8.00" length="14.19" shape="92.80,48.40 96.65,48.95 99.40,50.60 101.05,53.35 101.60,57.20"/>
    </edge>
    <edge id=":n6_8" function="internal">
        <lane id=":n6_8_0" index="0" speed="3.65" length="4.67" shape="92.80,48.40 94.00,49.20 94.40,50.00 94.00,50.80 92.80,51.60"/>
    </edge>
    <edge id=":n7_0" function="internal">
        <lane id=":n7_0_0" index="0" speed="6.08" length="7.74" shape="101.60,96.80 101.30,98.90 100.40,100.40 98.90,101.30 96.80,101.60"/>
    </edge>
    <edge id=":n7_1" function="internal">
        <lane id=":n7_1_0" index="0" speed="3.90" length="2.58" shape="96.80,98.40 97.50,98.30 98.00,98.00 98.30,97.50 98.40,96.80"/>
    </edge>
    <edge id=":n8_0" function="internal">
        <lane id=":n8_0_0" index="0" speed="13.90" length="14.40" shape="57.20,101.60 42.80,101.60"/>
    </edge>
    <edge id=":n8_1" function="internal">
        <lane id=":n8_1_0" index="0" speed="8.00" length="14.19" shape="57.20,101.60 53.35,101.05 50.60,99.40 48.95,96.65 48.40,92.80"/>
    </edge>
    <edge id=":n8_2" function="internal">
        <lane id=":n8_2_0" index="0" speed="3.65" length="4.67" shape="57.20,101.60 56.00,100.80 55.60,100.00 56.00,99.20 57.20,98.40"/>
    </edge>
    <edge id=":n8_3" function="internal">
        <lane id=":n8_3_0" index="0" speed="6.51" length="9.03" shape="51.60,92.80 51.95,95.25 53.00,97.00 54.75,98.05 57.20,98.40"/>
    </edge>
    <edge id=":n8_4" function="internal">
        <lane id=":n8_4_0" index="0" speed="8.00" length="14.19" shape="51.60,92.80 51.05,96.65 49.40,99.40 46.65,101.05 42.80,101.60"/>
    </edge>
    <edge id=":n8_5" function="internal">
        <lane id=":n8_5_0" index="0" speed="3.65" length="4.67" shape="51.60,92.80 50.80,94.00 50.00,94.40 49.20,94.00 48.40,92.80"/>
    </edge>
    <edge id=":n8_6" function="internal">
        <lane id=":n8_6_0" index="0" speed="6.51" length="9.03" shape="42.80,98.40 45.25,98.05 47.00,97.00 48.05,95.25 48.40,92.80"/>
    </edge>
    <edge id=":n8_7" function="internal">
        <lane id=":n8_7_0" index="0" speed="13.90" length="14.40" shape="42.80,98.40 57.20,98.40"/>
    </edge>
    <edge id=":n8_8" function="internal">
        <lane id=":n8_8_0" index="0" speed="3.65" length="4.67" shape="42.80,98.40 44.00,99.20 44.40,100.00 44.00,100.80 42.80,101.60"/>
    </edge>
    <edge id=":n9_0" function="internal">
        <lane id=":n9_0_0" index="0" speed="6.08" length="7.74" shape="3.20,101.60 1.10,101.30 -0.40,100.40 -1.30,98.90 -1.60,96.80"/>
    </edge>
    <edge id=":n9_1" function="internal">
        <lane id=":n9_1_0" index="0" speed="3.90" length="2.58" shape="1.60,96.80 1.70,97.50 2.00,98.00 2.50,98.30 3.20,98.40"/>
    </edge>

    <edge id="e12" from="n1" to="n2" priority="0" type="normal_road">
        <lane id="e12_0" index="0" speed="13.90" length="39.60" shape="3.20,-1.60 42.80,-1.60"/>
    </edge>
    <edge id="e14" from="n1" to="n4" priority="0" type="normal_road">
        <lane id="e14_0" index="0" speed="13.90" length="39.60" shape="1.60,3.20 1.60,42.80"/>
    </edge>
    <edge id="e21" from="n2" to="n1" priority="0" type="normal_road">
        <lane id="e21_0" index="0" speed="13.90" length="39.60" shape="42.80,1.60 3.20,1.60"/>
    </edge>
    <edge id="e23" from="n2" to="n3" priority="0" type="normal_road">
        <lane id="e23_0" index="0" speed="13.90" length="35.60" shape="51.60,7.20 51.60,42.80"/>
    </edge>
    <edge id="e25" from="n2" to="n5" priority="0" type="normal_road">
        <lane id="e25_0" index="0" speed="13.90" length="39.60" shape="57.20,-1.60 96.80,-1.60"/>
    </edge>
    <edge id="e32" from="n3" to="n2" priority="0" type="normal_road">
        <lane id="e32_0" index="0" speed="13.90" length="35.60" shape="48.40,42.80 48.40,7.20"/>
    </edge>
    <edge id="e34" from="n3" to="n4" priority="0" type="normal_road">
        <lane id="e34_0" index="0" speed="13.90" length="35.60" shape="42.80,51.60 7.20,51.60"/>
    </edge>
    <edge id="e36" from="n3" to="n6" priority="0" type="normal_road">
        <lane id="e36_0" index="0" speed="13.90" length="35.60" shape="57.20,48.40 92.80,48.40"/>
    </edge>
    <edge id="e38" from="n3" to="n8" priority="0" type="normal_road">
        <lane id="e38_0" index="0" speed="13.90" length="35.60" shape="51.60,57.20 51.60,92.80"/>
    </edge>
    <edge id="e41" from="n4" to="n1" priority="0" type="normal_road">
        <lane id="e41_0" index="0" speed="13.90" length="39.60" shape="-1.60,42.80 -1.60,3.20"/>
    </edge>
    <edge id="e43" from="n4" to="n3" priority="0" type="normal_road">
        <lane id="e43_0" index="0" speed="13.90" length="35.60" shape="7.20,48.40 42.80,48.40"/>
    </edge>
    <edge id="e49" from="n4" to="n9" priority="0" type="normal_road">
        <lane id="e49_0" index="0" speed="13.90" length="39.60" shape="1.60,57.20 1.60,96.80"/>
    </edge>
    <edge id="e52" from="n5" to="n2" priority="0" type="normal_road">
        <lane id="e52_0" index="0" speed="13.90" length="39.60" shape="96.80,1.60 57.20,1.60"/>
    </edge>
    <edge id="e56" from="n5" to="n6" priority="0" type="normal_road">
        <lane id="e56_0" index="0" speed="13.90" length="39.60" shape="101.60,3.20 101.60,42.80"/>
    </edge>
    <edge id="e63" from="n6" to="n3" priority="0" type="normal_road">
        <lane id="e63_0" index="0" speed="13.90" length="35.60" shape="92.80,51.60 57.20,51.60"/>
    </edge>
    <edge id="e65" from="n6" to="n5" priority="0" type="normal_road">
        <lane id="e65_0" index="0" speed="13.90" length="39.60" shape="98.40,42.80 98.40,3.20"/>
    </edge>
    <edge id="e67" from="n6" to="n7" priority="0" type="normal_road">
        <lane id="e67_0" index="0" speed="13.90" length="39.60" shape="101.60,57.20 101.60,96.80"/>
    </edge>
    <edge id="e76" from="n7" to="n6" priority="0" type="normal_road">
        <lane id="e76_0" index="0" speed="13.90" length="39.60" shape="98.40,96.80 98.40,57.20"/>
    </edge>
    <edge id="e78" from="n7" to="n8" priority="0" type="normal_road">
        <lane id="e78_0" index="0" speed="13.90" length="39.60" shape="96.80,101.60 57.20,101.60"/>
    </edge>
    <edge id="e83" from="n8" to="n3" priority="0" type="normal_road">
        <lane id="e83_0" index="0" speed="13.90" length="35.60" shape="48.40,92.80 48.40,57.20"/>
    </edge>
    <edge id="e87" from="n8" to="n7" priority="0" type="normal_road">
        <lane id="e87_0" index="0" speed="13.90" length="39.60" shape="57.20,98.40 96.80,98.40"/>
    </edge>
    <edge id="e89" from="n8" to="n9" priority="0" type="normal_road">
        <lane id="e89_0" index="0" speed="13.90" length="39.60" shape="42.80,101.60 3.20,101.60"/>
    </edge>
    <edge id="e94" from="n9" to="n4" priority="0" type="normal_road">
        <lane id="e94_0" index="0" speed="13.90" length="39.60" shape="-1.60,96.80 -1.60,57.20"/>
    </edge>
    <edge id="e98" from="n9" to="n8" priority="0" type="normal_road">
        <lane id="e98_0" index="0" speed="13.90" length="39.60" shape="3.20,98.40 42.80,98.40"/>
    </edge>

    <junction id="n1" type="allway_stop" x="0.00" y="0.00" incLanes="e41_0 e21_0" intLanes=":n1_0_0 :n1_1_0" shape="-3.20,3.20 3.20,3.20 3.20,-3.20 -0.36,-2.49 -1.60,-1.60 -2.49,-0.36 -3.02,1.24">
        <request index="0" response="00" foes="00" cont="0"/>
        <request index="1" response="00" foes="00" cont="0"/>
    </junction>
    <junction id="n2" type="allway_stop" x="50.00" y="0.00" incLanes="e32_0 e52_0 e12_0" intLanes=":n2_0_0 :n2_1_0 :n2_2_0 :n2_3_0 :n2_4_0 :n2_5_0 :n2_6_0 :n2_7_0 :n2_8_0" shape="46.80,7.20 53.20,7.20 53.64,4.98 54.20,4.20 54.98,3.64 55.98,3.31 57.20,3.20 57.20,-3.20 42.80,-3.20 42.80,3.20 45.02,3.64 45.80,4.20 46.36,4.98 46.69,5.98">
        <request index="0" response="100010000" foes="100010000" cont="0"/>
        <request index="1" response="011110000" foes="011110000" cont="0"/>
        <request index="2" response="010001000" foes="010001000" cont="0"/>
        <request index="3" response="010000100" foes="010000100" cont="0"/>
        <request index="4" response="110000011" foes="110000011" cont="0"/>
        <request index="5" response="001000010" foes="001000010" cont="0"/>
        <request index="6" response="000100010" foes="000100010" cont="0"/>
        <request index="7" response="000011110" foes="000011110" cont="0"/>
        <request index="8" response="000010001" foes="000010001" cont="0"/>
    </junction>
    <junction id="n3" type="allway_stop" x="50.00" y="50.00" incLanes="e83_0 e63_0 e23_0 e43_0" intLanes=":n3_0_0 :n3_1_0 :n3_2_0 :n3_3_0 :n3_4_0 :n3_5_0 :n3_6_0 :n3_7_0 :n3_8_0 :n3_9_0 :n3_10_0 :n3_11_0 :n3_12_0 :n3_13_0 :n3_14_0 :n3_15_0" shape="46.80,57.20 53.20,57.20 53.64,54.98 54.20,54.20 54.98,53.64 55.98,53.31 57.20,53.20 57.20,46.80 54.98,46.36 54.20,45.80 53.64,45.02 53.31,44.02 53.20,42.80 46.80,42.80 46.36,45.02 45.80,45.80 45.02,46.36 44.02,46.69 42.80,46.80 42.80,53.20 45.02,53.64 45.80,54.20 46.36,54.98 46.69,55.98">
        <request index="0"  response="1000010000100000" foes="1000010000100000" cont="0"/>
        <request index="1"  response="0111110001100000" foes="0111110001100000" cont="0"/>
        <request index="2"  response="0110001111100000" foes="0110001111100000" cont="0"/>
        <request index="3"  response="0100001000010000" foes="0100001000010000" cont="0"/>
        <request index="4"  response="0100001000001000" foes="0100001000001000" cont="0"/>
        <request index="5"  response="1100011000000111" foes="1100011000000111" cont="0"/>
        <request index="6"  response="0011111000000110" foes="0011111000000110" cont="0"/>
        <request index="7"  response="0010000100000100" foes="0010000100000100" cont="0"/>
        <request index="8"  response="0010000010000100" foes="0010000010000100" cont="0"/>
        <request index="9"  response="0110000001111100" foes="0110000001111100" cont="0"/>
        <request index="10" response="1110000001100011" foes="1110000001100011" cont="0"/>
        <request index="11" response="0001000001000010" foes="0001000001000010" cont="0"/>
        <request index="12" response="0000100001000010" foes="0000100001000010" cont="0"/>
        <request index="13" response="0000011111000110" foes="0000011111000110" cont="0"/>
        <request index="14" response="0000011000111110" foes="0000011000111110" cont="0"/>
        <request index="15" response="0000010000100001" foes="0000010000100001" cont="0"/>
    </junction>
    <junction id="n4" type="allway_stop" x="0.00" y="50.00" incLanes="e94_0 e34_0 e14_0" intLanes=":n4_0_0 :n4_1_0 :n4_2_0 :n4_3_0 :n4_4_0 :n4_5_0 :n4_6_0 :n4_7_0 :n4_8_0" shape="-3.20,57.20 3.20,57.20 3.64,54.98 4.20,54.20 4.98,53.64 5.98,53.31 7.20,53.20 7.20,46.80 4.98,46.36 4.20,45.80 3.64,45.02 3.31,44.02 3.20,42.80 -3.20,42.80">
        <request index="0" response="100010000" foes="100010000" cont="0"/>
        <request index="1" response="011110000" foes="011110000" cont="0"/>
        <request index="2" response="010001000" foes="010001000" cont="0"/>
        <request index="3" response="010000100" foes="010000100" cont="0"/>
        <request index="4" response="110000011" foes="110000011" cont="0"/>
        <request index="5" response="001000010" foes="001000010" cont="0"/>
        <request index="6" response="000100010" foes="000100010" cont="0"/>
        <request index="7" response="000011110" foes="000011110" cont="0"/>
        <request index="8" response="000010001" foes="000010001" cont="0"/>
    </junction>
    <junction id="n5" type="allway_stop" x="100.00" y="0.00" incLanes="e65_0 e25_0" intLanes=":n5_0_0 :n5_1_0" shape="96.80,3.20 103.20,3.20 102.49,-0.36 101.60,-1.60 100.36,-2.49 98.76,-3.02 96.80,-3.20">
        <request index="0" response="00" foes="00" cont="0"/>
        <request index="1" response="00" foes="00" cont="0"/>
    </junction>
    <junction id="n6" type="allway_stop" x="100.00" y="50.00" incLanes="e76_0 e56_0 e36_0" intLanes=":n6_0_0 :n6_1_0 :n6_2_0 :n6_3_0 :n6_4_0 :n6_5_0 :n6_6_0 :n6_7_0 :n6_8_0" shape="96.80,57.20 103.20,57.20 103.20,42.80 96.80,42.80 96.36,45.02 95.80,45.80 95.02,46.36 94.02,46.69 92.80,46.80 92.80,53.20 95.02,53.64 95.80,54.20 96.36,54.98 96.69,55.98">
        <request index="0" response="100010000" foes="100010000" cont="0"/>
        <request index="1" response="011110000" foes="011110000" cont="0"/>
        <request index="2" response="010001000" foes="010001000" cont="0"/>
        <request index="3" response="010000100" foes="010000100" cont="0"/>
        <request index="4" response="110000011" foes="110000011" cont="0"/>
        <request index="5" response="001000010" foes="001000010" cont="0"/>
        <request index="6" response="000100010" foes="000100010" cont="0"/>
        <request index="7" response="000011110" foes="000011110" cont="0"/>
        <request index="8" response="000010001" foes="000010001" cont="0"/>
    </junction>
    <junction id="n7" type="allway_stop" x="100.00" y="100.00" incLanes="e67_0 e87_0" intLanes=":n7_0_0 :n7_1_0" shape="103.20,96.80 96.80,96.80 96.80,103.20 100.36,102.49 101.60,101.60 102.49,100.36 103.02,98.76">
        <request index="0" response="00" foes="00" cont="0"/>
        <request index="1" response="00" foes="00" cont="0"/>
    </junction>
    <junction id="n8" type="allway_stop" x="50.00" y="100.00" incLanes="e78_0 e38_0 e98_0" intLanes=":n8_0_0 :n8_1_0 :n8_2_0 :n8_3_0 :n8_4_0 :n8_5_0 :n8_6_0 :n8_7_0 :n8_8_0" shape="57.20,103.20 57.20,96.80 54.98,96.36 54.20,95.80 53.64,95.02 53.31,94.02 53.20,92.80 46.80,92.80 46.36,95.02 45.80,95.80 45.02,96.36 44.02,96.69 42.80,96.80 42.80,103.20">
        <request index="0" response="100010000" foes="100010000" cont="0"/>
        <request index="1" response="011110000" foes="011110000" cont="0"/>
        <request index="2" response="010001000" foes="010001000" cont="0"/>
        <request index="3" response="010000100" foes="010000100" cont="0"/>
        <request index="4" response="110000011" foes="110000011" cont="0"/>
        <request index="5" response="001000010" foes="001000010" cont="0"/>
        <request index="6" response="000100010" foes="000100010" cont="0"/>
        <request index="7" response="000011110" foes="000011110" cont="0"/>
        <request index="8" response="000010001" foes="000010001" cont="0"/>
    </junction>
    <junction id="n9" type="allway_stop" x="0.00" y="100.00" incLanes="e89_0 e49_0" intLanes=":n9_0_0 :n9_1_0" shape="3.20,103.20 3.20,96.80 -3.20,96.80 -2.49,100.36 -1.60,101.60 -0.36,102.49 1.24,103.02">
        <request index="0" response="00" foes="00" cont="0"/>
        <request index="1" response="00" foes="00" cont="0"/>
    </junction>

    <connection from="e12" to="e25" fromLane="0" toLane="0" via=":n2_6_0" dir="s" state="w"/>
    <connection from="e12" to="e23" fromLane="0" toLane="0" via=":n2_7_0" dir="l" state="w"/>
    <connection from="e12" to="e21" fromLane="0" toLane="0" via=":n2_8_0" dir="t" state="w"/>
    <connection from="e14" to="e43" fromLane="0" toLane="0" via=":n4_6_0" dir="r" state="w"/>
    <connection from="e14" to="e49" fromLane="0" toLane="0" via=":n4_7_0" dir="s" state="w"/>
    <connection from="e14" to="e41" fromLane="0" toLane="0" via=":n4_8_0" dir="t" state="w"/>
    <connection from="e21" to="e14" fromLane="0" toLane="0" via=":n1_1_0" dir="r" state="w"/>
    <connection from="e23" to="e36" fromLane="0" toLane="0" via=":n3_8_0" dir="r" state="w"/>
    <connection from="e23" to="e38" fromLane="0" toLane="0" via=":n3_9_0" dir="s" state="w"/>
    <connection from="e23" to="e34" fromLane="0" toLane="0" via=":n3_10_0" dir="l" state="w"/>
    <connection from="e23" to="e32" fromLane="0" toLane="0" via=":n3_11_0" dir="t" state="w"/>
    <connection from="e25" to="e56" fromLane="0" toLane="0" via=":n5_1_0" dir="l" state="w"/>
    <connection from="e32" to="e21" fromLane="0" toLane="0" via=":n2_0_0" dir="r" state="w"/>
    <connection from="e32" to="e25" fromLane="0" toLane="0" via=":n2_1_0" dir="l" state="w"/>
    <connection from="e32" to="e23" fromLane="0" toLane="0" via=":n2_2_0" dir="t" state="w"/>
    <connection from="e34" to="e49" fromLane="0" toLane="0" via=":n4_3_0" dir="r" state="w"/>
    <connection from="e34" to="e41" fromLane="0" toLane="0" via=":n4_4_0" dir="l" state="w"/>
    <connection from="e34" to="e43" fromLane="0" toLane="0" via=":n4_5_0" dir="t" state="w"/>
    <connection from="e36" to="e65" fromLane="0" toLane="0" via=":n6_6_0" dir="r" state="w"/>
    <connection from="e36" to="e67" fromLane="0" toLane="0" via=":n6_7_0" dir="l" state="w"/>
    <connection from="e36" to="e63" fromLane="0" toLane="0" via=":n6_8_0" dir="t" state="w"/>
    <connection from="e38" to="e87" fromLane="0" toLane="0" via=":n8_3_0" dir="r" state="w"/>
    <connection from="e38" to="e89" fromLane="0" toLane="0" via=":n8_4_0" dir="l" state="w"/>
    <connection from="e38" to="e83" fromLane="0" toLane="0" via=":n8_5_0" dir="t" state="w"/>
    <connection from="e41" to="e12" fromLane="0" toLane="0" via=":n1_0_0" dir="l" state="w"/>
    <connection from="e43" to="e32" fromLane="0" toLane="0" via=":n3_12_0" dir="r" state="w"/>
    <connection from="e43" to="e36" fromLane="0" toLane="0" via=":n3_13_0" dir="s" state="w"/>
    <connection from="e43" to="e38" fromLane="0" toLane="0" via=":n3_14_0" dir="l" state="w"/>
    <connection from="e43" to="e34" fromLane="0" toLane="0" via=":n3_15_0" dir="t" state="w"/>
    <connection from="e49" to="e98" fromLane="0" toLane="0" via=":n9_1_0" dir="r" state="w"/>
    <connection from="e52" to="e23" fromLane="0" toLane="0" via=":n2_3_0" dir="r" state="w"/>
    <connection from="e52" to="e21" fromLane="0" toLane="0" via=":n2_4_0" dir="s" state="w"/>
    <connection from="e52" to="e25" fromLane="0" toLane="0" via=":n2_5_0" dir="t" state="w"/>
    <connection from="e56" to="e67" fromLane="0" toLane="0" via=":n6_3_0" dir="s" state="w"/>
    <connection from="e56" to="e63" fromLane="0" toLane="0" via=":n6_4_0" dir="l" state="w"/>
    <connection from="e56" to="e65" fromLane="0" toLane="0" via=":n6_5_0" dir="t" state="w"/>
    <connection from="e63" to="e38" fromLane="0" toLane="0" via=":n3_4_0" dir="r" state="w"/>
    <connection from="e63" to="e34" fromLane="0" toLane="0" via=":n3_5_0" dir="s" state="w"/>
    <connection from="e63" to="e32" fromLane="0" toLane="0" via=":n3_6_0" dir="l" state="w"/>
    <connection from="e63" to="e36" fromLane="0" toLane="0" via=":n3_7_0" dir="t" state="w"/>
    <connection from="e65" to="e52" fromLane="0" toLane="0" via=":n5_0_0" dir="r" state="w"/>
    <connection from="e67" to="e78" fromLane="0" toLane="0" via=":n7_0_0" dir="l" state="w"/>
    <connection from="e76" to="e63" fromLane="0" toLane="0" via=":n6_0_0" dir="r" state="w"/>
    <connection from="e76" to="e65" fromLane="0" toLane="0" via=":n6_1_0" dir="s" state="w"/>
    <connection from="e76" to="e67" fromLane="0" toLane="0" via=":n6_2_0" dir="t" state="w"/>
    <connection from="e78" to="e89" fromLane="0" toLane="0" via=":n8_0_0" dir="s" state="w"/>
    <connection from="e78" to="e83" fromLane="0" toLane="0" via=":n8_1_0" dir="l" state="w"/>
    <connection from="e78" to="e87" fromLane="0" toLane="0" via=":n8_2_0" dir="t" state="w"/>
    <connection from="e83" to="e34" fromLane="0" toLane="0" via=":n3_0_0" dir="r" state="w"/>
    <connection from="e83" to="e32" fromLane="0" toLane="0" via=":n3_1_0" dir="s" state="w"/>
    <connection from="e83" to="e36" fromLane="0" toLane="0" via=":n3_2_0" dir="l" state="w"/>
    <connection from="e83" to="e38" fromLane="0" toLane="0" via=":n3_3_0" dir="t" state="w"/>
    <connection from="e87" to="e76" fromLane="0" toLane="0" via=":n7_1_0" dir="r" state="w"/>
    <connection from="e89" to="e94" fromLane="0" toLane="0" via=":n9_0_0" dir="l" state="w"/>
    <connection from="e94" to="e41" fromLane="0" toLane="0" via=":n4_0_0" dir="s" state="w"/>
    <connection from="e94" to="e43" fromLane="0" toLane="0" via=":n4_1_0" dir="l" state="w"/>
    <connection from="e94" to="e49" fromLane="0" toLane="0" via=":n4_2_0" dir="t" state="w"/>
    <connection from="e98" to="e83" fromLane="0" toLane="0" via=":n8_6_0" dir="r" state="w"/>
    <connection from="e98" to="e87" fromLane="0" toLane="0" via=":n8_7_0" dir="s" state="w"/>
    <connection from="e98" to="e89" fromLane="0" toLane="0" via=":n8_8_0" dir="t" state="w"/>

    <connection from=":n1_0" to="e12" fromLane="0" toLane="0" dir="l" state="M"/>